
     RDKit          3D

  0  0  0  0  0  0  0  0  0  0999 V3000
M  V30 BEGIN CTAB
M  V30 COUNTS 56 64 0 0 0
M  V30 BEGIN ATOM
M  V30 1 F -5.639000 5.726000 -8.426000 0
M  V30 2 F -4.307000 6.162000 -8.606000 0
M  V30 3 F -6.483000 5.762000 -9.565000 0
M  V30 4 F -6.184000 5.331000 -7.048000 0
M  V30 5 F -3.753000 6.537000 -9.812000 0
M  V30 6 F -5.955000 6.101000 -10.823000 0
M  V30 7 F -6.702000 6.480000 -6.272000 0
M  V30 8 F -4.646000 6.527000 -10.928000 0
M  V30 9 F -2.334000 6.942000 -9.947000 0
M  V30 10 F -5.894000 7.235000 -5.393000 0
M  V30 11 F -8.056000 6.870000 -6.359000 0
M  V30 12 F -2.167000 8.497000 -9.647000 0
M  V30 13 F -6.390000 8.297000 -4.606000 0
M  V30 14 F -8.588000 7.912000 -5.580000 0
M  V30 15 F -1.973000 8.974000 -8.374000 0
M  V30 16 F -2.215000 9.374000 -10.696000 0
M  V30 17 F -5.467000 9.113000 -3.715000 0
M  V30 18 F -7.718000 8.656000 -4.741000 0
M  V30 19 F -1.824000 10.359000 -8.022000 0
M  V30 20 F -2.105000 10.760000 -10.404000 0
M  V30 21 F -4.720000 10.221000 -4.457000 0
M  V30 22 F -1.943000 11.196000 -9.100000 0
M  V30 23 F -1.639000 10.801000 -6.606000 0
M  V30 24 F -3.595000 10.031000 -5.183000 0
M  V30 25 F -5.344000 11.458000 -4.487000 0
M  V30 26 F -2.931000 11.083000 -5.902000 0
M  V30 27 F -4.667000 12.586000 -5.168000 0
M  V30 28 F -3.525000 12.289000 -5.842000 0
M  V30 29 F -9.410000 16.876000 -16.358000 0
M  V30 30 F -10.377000 16.183000 -17.047000 0
M  V30 31 F -9.867000 18.025000 -15.617000 0
M  V30 32 F -11.699000 16.558000 -17.182000 0
M  V30 33 F -11.146000 18.410000 -15.684000 0
M  V30 34 F -12.073000 17.707000 -16.441000 0
M  V30 35 F -12.671000 15.793000 -17.954000 0
M  V30 36 F -11.594000 19.729000 -14.973000 0
M  V30 37 F -13.449000 14.690000 -17.047000 0
M  V30 38 F -12.047000 19.385000 -13.572000 0
M  V30 39 F -14.525000 14.993000 -16.381000 0
M  V30 40 F -12.838000 13.453000 -16.987000 0
M  V30 41 F -13.387000 19.067000 -13.265000 0
M  V30 42 F -11.155000 19.462000 -12.478000 0
M  V30 43 F -15.246000 13.982000 -15.557000 0
M  V30 44 F -13.541000 12.427000 -16.148000 0
M  V30 45 F -13.853000 18.667000 -11.977000 0
M  V30 46 F -11.572000 19.108000 -11.160000 0
M  V30 47 F -15.624000 14.618000 -11.003000 0
M  V30 48 F -14.622000 12.781000 -15.504000 0
M  V30 49 F -16.516000 14.357000 -14.778000 0
M  V30 50 F -15.308000 18.369000 -11.669000 0
M  V30 51 F -12.895000 18.769000 -10.935000 0
M  V30 52 F -15.435000 15.978000 -10.808000 0
M  V30 53 F -16.029000 14.146000 -12.171000 0
M  V30 54 F -16.134000 14.911000 -13.407000 0
M  V30 55 F -15.620000 16.825000 -11.969000 0
M  V30 56 F -15.844000 16.337000 -13.145000 0
M  V30 END ATOM
M  V30 BEGIN BOND
M  V30 1 1 1 3
M  V30 2 1 1 2
M  V30 3 1 1 4
M  V30 4 1 2 5
M  V30 5 1 3 6
M  V30 6 1 4 7
M  V30 7 1 5 8
M  V30 8 1 5 9
M  V30 9 1 6 8
M  V30 10 1 7 11
M  V30 11 1 7 10
M  V30 12 1 9 12
M  V30 13 1 10 13
M  V30 14 1 11 14
M  V30 15 1 12 16
M  V30 16 1 12 15
M  V30 17 1 13 18
M  V30 18 1 13 17
M  V30 19 1 14 18
M  V30 20 1 15 19
M  V30 21 1 16 20
M  V30 22 1 17 21
M  V30 23 1 19 22
M  V30 24 1 19 23
M  V30 25 1 20 22
M  V30 26 1 21 24
M  V30 27 1 21 25
M  V30 28 1 23 26
M  V30 29 1 24 26
M  V30 30 1 25 27
M  V30 31 1 26 28
M  V30 32 1 27 28
M  V30 33 1 29 30
M  V30 34 1 29 31
M  V30 35 1 30 32
M  V30 36 1 31 33
M  V30 37 1 32 35
M  V30 38 1 32 34
M  V30 39 1 33 34
M  V30 40 1 33 36
M  V30 41 1 35 37
M  V30 42 1 36 38
M  V30 43 1 37 40
M  V30 44 1 37 39
M  V30 45 1 38 41
M  V30 46 1 38 42
M  V30 47 1 39 43
M  V30 48 1 40 44
M  V30 49 1 41 45
M  V30 50 1 42 46
M  V30 51 1 43 48
M  V30 52 1 43 49
M  V30 53 1 44 48
M  V30 54 1 45 50
M  V30 55 1 45 51
M  V30 56 1 46 51
M  V30 57 1 47 53
M  V30 58 1 47 52
M  V30 59 1 49 54
M  V30 60 1 50 55
M  V30 61 1 52 55
M  V30 62 1 53 54
M  V30 63 1 54 56
M  V30 64 1 55 56
M  V30 END BOND
M  V30 END CTAB
M  END
