
     RDKit          3D

  0  0  0  0  0  0  0  0  0  0999 V3000
M  V30 BEGIN CTAB
M  V30 COUNTS 305 530 0 0 0
M  V30 BEGIN ATOM
M  V30 1 N -5.048893 6.787274 -7.035014 0
M  V30 2 N -7.326135 6.436762 -8.036138 0
M  V30 3 N -6.274114 9.839643 -8.708132 0
M  V30 4 H -4.848162 4.797900 -9.924117 0
M  V30 5 H -4.442361 4.797900 -7.365379 0
M  V30 6 H -4.789187 4.797900 -9.931892 0
M  V30 7 H -4.734662 4.797900 -9.972423 0
M  V30 8 H -1.475100 5.893211 -4.939872 0
M  V30 9 H -1.475100 4.797900 -7.581663 0
M  V30 10 N -4.983492 6.769829 -6.965527 0
M  V30 11 H -1.475100 4.797900 -4.574086 0
M  V30 12 H -2.400228 4.797900 -8.942795 0
M  V30 13 H -4.664060 4.797900 -9.982731 0
M  V30 14 H -2.577370 4.797900 -5.118532 0
M  V30 15 N -6.282826 9.941851 -8.730997 0
M  V30 16 N -3.119781 7.544131 -8.404105 0
M  V30 17 N -3.136474 7.550003 -8.425250 0
M  V30 18 N -5.954387 9.878240 -8.995760 0
M  V30 19 N -6.221839 10.103282 -8.690411 0
M  V30 20 H -1.475100 6.051032 -6.852772 0
M  V30 21 N -6.136576 10.088852 -8.897879 0
M  V30 22 N -6.233758 10.118080 -8.704657 0
M  V30 23 N -6.237576 10.134690 -8.914104 0
M  V30 24 N -6.162279 10.097681 -8.930915 0
M  V30 25 N -6.288703 10.168692 -8.812277 0
M  V30 26 N -6.250869 10.157467 -8.745617 0
M  V30 27 N -3.337518 7.560889 -6.416709 0
M  V30 28 N -6.217717 10.142844 -8.735984 0
M  V30 29 N -11.092127 9.757681 -11.026995 0
M  V30 30 H -15.266709 4.797900 -11.361113 0
M  V30 31 N -7.338835 6.430716 -8.035665 0
M  V30 32 H -8.723562 4.797900 -8.150766 0
M  V30 33 H -13.440697 4.797900 -13.530523 0
M  V30 34 N -6.457073 10.301484 -9.116320 0
M  V30 35 N -6.754677 10.552560 -9.173569 0
M  V30 36 N -6.286805 10.179352 -8.955386 0
M  V30 37 N -7.338782 10.485202 -9.436877 0
M  V30 38 N -10.842356 10.015242 -11.034019 0
M  V30 39 N -6.511581 10.370220 -8.991279 0
M  V30 40 N -12.963403 7.604292 -11.200907 0
M  V30 41 H -14.557161 4.797900 -12.333500 0
M  V30 42 H -5.756156 4.797900 -4.561524 0
M  V30 43 H -7.938757 4.797900 -6.018466 0
M  V30 44 H -2.652313 4.797900 -11.592488 0
M  V30 45 N -3.512121 8.030091 -10.933450 0
M  V30 46 N -4.260046 8.620392 -10.340266 0
M  V30 47 N -3.511474 8.057183 -10.845381 0
M  V30 48 N -7.323703 11.006050 -14.753651 0
M  V30 49 N -8.811149 12.422324 -11.068109 0
M  V30 50 H -6.444164 7.640989 -19.749400 0
M  V30 51 N -8.888103 12.470869 -10.900811 0
M  V30 52 H -5.518912 4.797900 -19.749400 0
M  V30 53 N -6.791351 10.584919 -9.196405 0
M  V30 54 N -7.704155 11.254532 -14.032450 0
M  V30 55 N -7.206105 11.370273 -14.118024 0
M  V30 56 N -7.139551 10.957446 -14.963218 0
M  V30 57 N -7.111157 10.803933 -15.232061 0
M  V30 58 H -7.631264 6.529616 -19.749400 0
M  V30 59 H -9.075351 4.797900 -19.749400 0
M  V30 60 H -7.868078 5.640006 -3.343500 0
M  V30 61 H -7.081209 4.797900 -3.343500 0
M  V30 62 H -8.110634 4.797900 -3.343500 0
M  V30 63 N -6.235884 10.114590 -8.687213 0
M  V30 64 H -1.475100 4.797900 -19.749400 0
M  V30 65 H -1.475100 4.797900 -14.366919 0
M  V30 66 N -6.156907 10.100094 -8.945023 0
M  V30 67 N -6.071108 10.061867 -9.052273 0
M  V30 68 H -1.475100 7.009123 -19.749400 0
M  V30 69 H -1.475100 6.633797 -15.143573 0
M  V30 70 N -6.978237 11.279622 -14.490713 0
M  V30 71 N -6.270651 10.800438 -16.024786 0
M  V30 72 H -4.430245 9.532466 -19.749400 0
M  V30 73 H -5.262739 9.038366 -19.749400 0
M  V30 74 H -1.475100 7.884341 -11.083063 0
M  V30 75 H -7.850264 5.740980 -3.343500 0
M  V30 76 H -1.475100 4.797900 -3.343500 0
M  V30 77 H -1.475100 5.798703 -3.343500 0
M  V30 78 H -5.193672 6.981724 -3.343500 0
M  V30 79 H -7.871116 5.658002 -3.343500 0
M  V30 80 H -2.042497 6.265243 -3.343500 0
M  V30 81 N -6.256181 10.095844 -8.215419 0
M  V30 82 N -4.714346 8.608027 -5.285615 0
M  V30 83 N -6.313937 10.167140 -8.532379 0
M  V30 84 N -4.764179 8.632085 -5.299859 0
M  V30 85 H -1.475100 5.917536 -4.925682 0
M  V30 86 N -5.120816 8.997202 -6.017326 0
M  V30 87 H -16.229186 4.797900 -10.670066 0
M  V30 88 N -6.645321 10.534855 -9.029711 0
M  V30 89 H -17.576847 4.797900 -8.821321 0
M  V30 90 N -6.499081 10.405500 -8.756812 0
M  V30 91 H -9.555752 4.797900 -3.343500 0
M  V30 92 N -6.524943 10.455022 -8.840715 0
M  V30 93 N -6.364557 10.281683 -8.648241 0
M  V30 94 N -6.556697 10.487828 -8.906282 0
M  V30 95 N -6.367591 10.311688 -8.717384 0
M  V30 96 N -6.353922 10.302970 -8.745804 0
M  V30 97 N -12.493798 8.831243 -10.745020 0
M  V30 98 N -12.273397 8.986872 -10.802673 0
M  V30 99 N -4.363083 9.988844 -9.130678 0
M  V30 100 N -6.251312 10.137224 -8.067481 0
M  V30 101 N -6.489552 10.095020 -4.852313 0
M  V30 102 H -7.881104 5.917047 -3.343500 0
M  V30 103 N -6.257220 10.139948 -8.087912 0
M  V30 104 N -6.597791 10.127744 -4.770156 0
M  V30 105 N -8.873236 12.611055 -10.798068 0
M  V30 106 H -18.167600 4.797900 -3.343500 0
M  V30 107 N -6.717331 10.649181 -9.058990 0
M  V30 108 H -14.093273 13.181277 -3.343500 0
M  V30 109 N -10.435709 13.629978 -7.534101 0
M  V30 110 H -18.167600 5.725477 -7.277048 0
M  V30 111 N -7.338782 10.485202 -9.436877 0
M  V30 112 N -10.422465 13.625040 -7.557390 0
M  V30 113 H -18.167600 4.797900 -8.154382 0
M  V30 114 N -6.625449 10.563830 -8.965164 0
M  V30 115 N -6.586261 10.523538 -8.881010 0
M  V30 116 N -8.888367 12.622787 -10.787157 0
M  V30 117 N -8.891203 12.505315 -10.884641 0
M  V30 118 H -18.167600 8.906453 -3.343500 0
M  V30 119 N -8.918526 12.531825 -10.860509 0
M  V30 120 N -12.173691 9.198611 -10.758942 0
M  V30 121 N -12.181708 9.188403 -10.759545 0
M  V30 122 H -1.475100 8.019173 -5.621837 0
M  V30 123 N -2.883038 9.417269 -6.800609 0
M  V30 124 N -5.831312 10.187518 -8.583287 0
M  V30 125 N -6.004532 10.172195 -8.637344 0
M  V30 126 N -4.085824 9.728228 -7.514994 0
M  V30 127 H -1.475100 11.950756 -19.749400 0
M  V30 128 H -2.089387 11.999509 -19.749400 0
M  V30 129 H -3.503902 10.642880 -19.749400 0
M  V30 130 H -7.351436 10.636946 -3.343500 0
M  V30 131 H -3.391951 9.017070 -3.343500 0
M  V30 132 N -11.025198 14.027637 -6.411242 0
M  V30 133 H -13.524773 13.935145 -3.343500 0
M  V30 134 H -12.508481 15.006262 -3.343500 0
M  V30 135 N -2.911236 9.467012 -6.812452 0
M  V30 136 N -2.801727 11.901724 -7.586747 0
M  V30 137 H -1.475100 12.733219 -19.749400 0
M  V30 138 H -1.475100 18.983160 -13.329407 0
M  V30 139 H -1.475100 19.465017 -12.657875 0
M  V30 140 N -5.944385 15.935247 -10.922443 0
M  V30 141 N -6.291072 15.538802 -10.958734 0
M  V30 142 N -8.743915 12.772356 -10.791043 0
M  V30 143 N -6.610422 15.209403 -10.597009 0
M  V30 144 H -3.160809 11.810784 -3.343500 0
M  V30 145 H -2.984317 11.806829 -3.343500 0
M  V30 146 H -2.926440 11.773384 -3.343500 0
M  V30 147 N -6.317011 10.306693 -8.729129 0
M  V30 148 H -1.475100 20.785165 -11.274526 0
M  V30 149 H -1.475100 21.281542 -10.059887 0
M  V30 150 N -2.775480 11.993629 -7.575391 0
M  V30 151 H -1.475100 13.593139 -7.480567 0
M  V30 152 N -6.172505 15.769767 -10.491723 0
M  V30 153 N -5.082576 17.116394 -10.414252 0
M  V30 154 N -5.800342 16.113612 -10.910680 0
M  V30 155 H -1.475100 10.169566 -4.458237 0
M  V30 156 H -1.475100 12.525993 -5.402147 0
M  V30 157 H -1.475100 10.931444 -3.343500 0
M  V30 158 H -2.802952 11.769556 -3.343500 0
M  V30 159 H -11.310798 16.702222 -3.343500 0
M  V30 160 H -12.125917 15.860345 -3.343500 0
M  V30 161 N -10.776919 14.490084 -6.476915 0
M  V30 162 N -10.620866 14.060617 -7.033144 0
M  V30 163 H -1.475100 12.423573 -3.343500 0
M  V30 164 N -8.888374 12.623095 -10.787035 0
M  V30 165 H -1.475100 21.701900 -3.343500 0
M  V30 166 H -2.986097 21.701900 -7.706806 0
M  V30 167 H -6.772473 21.701900 -3.343500 0
M  V30 168 H -10.594521 17.655405 -3.343500 0
M  V30 169 H -1.475100 17.609947 -3.343500 0
M  V30 170 N -10.382321 14.087230 -7.471817 0
M  V30 171 H -1.475100 21.701900 -5.146631 0
M  V30 172 N -10.386317 14.089719 -7.463447 0
M  V30 173 H -1.475100 21.701900 -9.605512 0
M  V30 174 H -2.541983 21.701900 -8.378822 0
M  V30 175 H -1.475100 21.701900 -19.749400 0
M  V30 176 H -5.049242 21.701900 -19.749400 0
M  V30 177 H -1.475100 21.701900 -17.545104 0
M  V30 178 H -9.813297 19.807058 -19.749400 0
M  V30 179 N -10.210748 18.780416 -18.521232 0
M  V30 180 H -9.872744 19.529851 -19.749400 0
M  V30 181 H -9.893033 19.675889 -19.749400 0
M  V30 182 N -10.473252 18.024753 -17.392761 0
M  V30 183 N -10.402362 18.246839 -17.715630 0
M  V30 184 H -9.873285 19.739171 -19.749400 0
M  V30 185 N -10.854383 14.226551 -13.037597 0
M  V30 186 N -11.342372 14.692668 -12.762021 0
M  V30 187 N -11.366401 14.712806 -12.808067 0
M  V30 188 N -11.213654 14.657185 -12.627617 0
M  V30 189 N -11.753920 15.109177 -13.607458 0
M  V30 190 N -11.634928 14.931153 -12.993554 0
M  V30 191 N -11.690636 14.978964 -13.103104 0
M  V30 192 N -11.515093 14.735414 -16.984430 0
M  V30 193 N -11.690692 14.979078 -13.103321 0
M  V30 194 H -10.211813 13.499784 -19.749400 0
M  V30 195 H -10.725743 16.522746 -19.749400 0
M  V30 196 N -11.650585 14.896553 -15.210005 0
M  V30 197 N -11.475467 14.790147 -12.868793 0
M  V30 198 N -11.423916 15.386386 -12.885239 0
M  V30 199 H -9.242919 21.701900 -19.749400 0
M  V30 200 N -11.554032 15.214500 -12.909634 0
M  V30 201 N -10.448837 18.688960 -14.042124 0
M  V30 202 H -7.526382 21.701900 -14.177169 0
M  V30 203 H -1.475100 21.701900 -11.694197 0
M  V30 204 H -9.287429 21.701900 -18.899729 0
M  V30 205 N -10.356168 18.764541 -13.993602 0
M  V30 206 N -11.530905 15.213125 -12.884067 0
M  V30 207 N -11.492862 14.801615 -12.869343 0
M  V30 208 N -11.622950 14.910659 -12.951138 0
M  V30 209 N -11.637201 14.926918 -12.974494 0
M  V30 210 N -11.504051 14.925895 -12.804000 0
M  V30 211 N -11.504579 14.912357 -12.802190 0
M  V30 212 N -11.498433 14.908241 -12.797561 0
M  V30 213 N -11.621939 14.931944 -12.934161 0
M  V30 214 N -11.632272 14.947853 -12.948282 0
M  V30 215 N -13.308622 16.367905 -16.343944 0
M  V30 216 H -12.531467 18.817077 -19.749400 0
M  V30 217 N -11.677780 14.803706 -16.847269 0
M  V30 218 N -11.696995 14.967666 -13.051864 0
M  V30 219 H -11.213074 21.505863 -19.749400 0
M  V30 220 N -11.704188 14.982564 -13.090031 0
M  V30 221 N -12.791065 18.346928 -14.883443 0
M  V30 222 N -12.620675 17.744498 -14.532642 0
M  V30 223 H -10.635902 21.701900 -19.749400 0
M  V30 224 N -11.699494 14.975742 -13.079343 0
M  V30 225 N -11.847797 15.214388 -13.129459 0
M  V30 226 N -11.702290 15.329242 -13.025853 0
M  V30 227 N -11.729141 15.005317 -13.080604 0
M  V30 228 N -11.833356 15.202125 -13.112750 0
M  V30 229 H -18.167600 21.701900 -19.749400 0
M  V30 230 H -12.040604 21.701900 -19.749400 0
M  V30 231 H -18.167600 20.674799 -19.749400 0
M  V30 232 N -13.328286 16.377835 -16.348734 0
M  V30 233 H -18.167600 20.711307 -18.097983 0
M  V30 234 H -18.003822 20.526831 -19.749400 0
M  V30 235 N -12.853101 18.371760 -14.897404 0
M  V30 236 H -17.124429 21.701900 -18.090577 0
M  V30 237 H -18.167600 21.701900 -18.522166 0
M  V30 238 N -16.845248 19.539796 -17.049233 0
M  V30 239 H -15.741324 15.283493 -19.749400 0
M  V30 240 H -13.550281 13.738042 -19.749400 0
M  V30 241 H -13.504294 21.701900 -14.290282 0
M  V30 242 H -11.171116 21.701900 -13.535871 0
M  V30 243 H -15.974437 12.685682 -19.048330 0
M  V30 244 H -16.507407 12.563014 -19.749400 0
M  V30 245 H -16.453683 12.426658 -19.749400 0
M  V30 246 H -16.224138 12.417326 -19.749400 0
M  V30 247 N -12.938506 14.281963 -14.765473 0
M  V30 248 N -15.200325 13.138582 -17.899516 0
M  V30 249 N -12.186377 17.932052 -12.442735 0
M  V30 250 H -12.991419 21.701900 -12.051676 0
M  V30 251 N -12.064465 17.328212 -12.536090 0
M  V30 252 H -18.167600 13.746990 -19.749400 0
M  V30 253 N -12.260758 14.858512 -13.236320 0
M  V30 254 H -18.167600 14.365991 -18.989921 0
M  V30 255 N -11.748298 14.910323 -13.048959 0
M  V30 256 H -18.167600 20.685308 -18.063990 0
M  V30 257 H -18.167600 18.738100 -17.255261 0
M  V30 258 N -15.275931 15.766810 -14.842552 0
M  V30 259 N -15.223671 15.667577 -14.817014 0
M  V30 260 N -12.296215 14.852394 -13.255672 0
M  V30 261 N -11.631084 14.837919 -12.940764 0
M  V30 262 N -11.670955 14.883302 -12.968162 0
M  V30 263 H -13.096619 21.701900 -11.753319 0
M  V30 264 N -14.764197 17.829133 -13.357291 0
M  V30 265 H -15.347456 21.701900 -12.365592 0
M  V30 266 H -18.167600 20.768641 -16.168168 0
M  V30 267 H -18.167600 21.701900 -15.760014 0
M  V30 268 H -13.449318 21.701900 -11.678843 0
M  V30 269 N -12.116537 17.521336 -12.494953 0
M  V30 270 H -13.053314 21.701900 -11.704486 0
M  V30 271 N -15.321330 13.255947 -13.815301 0
M  V30 272 H -18.167600 11.515248 -19.749400 0
M  V30 273 H -18.167600 11.607367 -17.661957 0
M  V30 274 H -16.489937 12.386907 -19.749400 0
M  V30 275 H -18.167600 4.797900 -19.749400 0
M  V30 276 H -18.167600 4.797900 -18.393880 0
M  V30 277 H -18.167600 7.263874 -19.749400 0
M  V30 278 N -12.171282 9.281866 -10.793421 0
M  V30 279 H -14.916534 21.701900 -10.329906 0
M  V30 280 N -11.843396 15.058760 -12.809643 0
M  V30 281 N -14.140967 17.178757 -11.042395 0
M  V30 282 N -11.661219 15.013140 -12.668043 0
M  V30 283 N -12.212314 15.321413 -12.704730 0
M  V30 284 N -14.087932 17.312892 -10.662077 0
M  V30 285 N -14.712998 17.718026 -13.222923 0
M  V30 286 H -11.631378 21.701900 -3.343500 0
M  V30 287 N -12.064606 14.777521 -13.012623 0
M  V30 288 H -18.167600 15.723680 -11.317417 0
M  V30 289 H -18.167600 14.580361 -3.343500 0
M  V30 290 N -12.836875 14.901692 -12.833655 0
M  V30 291 N -12.132857 14.721535 -13.004967 0
M  V30 292 H -18.167600 4.797900 -11.488352 0
M  V30 293 H -18.167600 9.685531 -13.490037 0
M  V30 294 N -15.414649 13.103431 -13.727671 0
M  V30 295 H -18.167600 16.242134 -14.228921 0
M  V30 296 H -18.167600 13.624619 -13.171223 0
M  V30 297 H -18.167600 21.701900 -3.343500 0
M  V30 298 H -18.167600 18.338261 -12.822280 0
M  V30 299 H -18.167600 17.782219 -9.960518 0
M  V30 300 H -17.041699 21.701900 -3.343500 0
M  V30 301 H -16.774665 20.091023 -3.343500 0
M  V30 302 H -18.167600 20.165010 -3.343500 0
M  V30 303 H -18.167600 15.793554 -11.411335 0
M  V30 304 H -18.167600 15.800382 -11.824574 0
M  V30 305 H -18.167600 15.821185 -11.777779 0
M  V30 END ATOM
M  V30 BEGIN BOND
M  V30 1 1 1 3
M  V30 2 1 2 3
M  V30 3 1 4 6
M  V30 4 1 3 15
M  V30 5 1 7 13
M  V30 6 1 7 6
M  V30 7 1 8 27
M  V30 8 1 8 11
M  V30 9 1 8 20
M  V30 10 1 9 20
M  V30 11 1 9 11
M  V30 12 1 9 12
M  V30 13 1 10 19
M  V30 14 1 10 1
M  V30 15 1 10 14
M  V30 16 1 11 14
M  V30 17 1 12 13
M  V30 18 1 5 14
M  V30 19 1 15 25
M  V30 20 1 15 22
M  V30 21 1 16 20
M  V30 22 1 16 17
M  V30 23 1 16 21
M  V30 24 1 17 18
M  V30 25 1 18 24
M  V30 26 1 19 22
M  V30 27 1 19 27
M  V30 28 1 21 28
M  V30 29 1 21 24
M  V30 30 1 22 26
M  V30 31 1 23 24
M  V30 32 1 23 25
M  V30 33 1 25 26
M  V30 34 1 26 28
M  V30 35 1 27 28
M  V30 36 1 29 40
M  V30 37 1 29 37
M  V30 38 1 29 38
M  V30 39 1 2 31
M  V30 40 1 30 41
M  V30 41 1 30 32
M  V30 42 1 30 40
M  V30 43 1 15 31
M  V30 44 1 31 32
M  V30 45 1 33 38
M  V30 46 1 33 41
M  V30 47 1 34 36
M  V30 48 1 34 35
M  V30 49 1 35 37
M  V30 50 1 35 39
M  V30 51 1 23 36
M  V30 52 1 36 39
M  V30 53 1 37 38
M  V30 54 1 39 25
M  V30 55 1 40 41
M  V30 56 1 42 43
M  V30 57 1 42 14
M  V30 58 1 43 32
M  V30 59 1 13 44
M  V30 60 1 18 46
M  V30 61 1 44 12
M  V30 62 1 45 47
M  V30 63 1 45 46
M  V30 64 1 46 47
M  V30 65 1 48 54
M  V30 66 1 48 56
M  V30 67 1 48 57
M  V30 68 1 7 52
M  V30 69 1 49 51
M  V30 70 1 49 55
M  V30 71 1 49 54
M  V30 72 1 50 57
M  V30 73 1 50 52
M  V30 74 1 50 58
M  V30 75 1 38 51
M  V30 76 1 33 59
M  V30 77 1 51 53
M  V30 78 1 52 59
M  V30 79 1 37 53
M  V30 80 1 53 35
M  V30 81 1 34 55
M  V30 82 1 54 58
M  V30 83 1 55 56
M  V30 84 1 56 57
M  V30 85 1 58 59
M  V30 86 1 60 62
M  V30 87 1 60 61
M  V30 88 1 42 61
M  V30 89 1 61 62
M  V30 90 1 22 63
M  V30 91 1 62 43
M  V30 92 1 63 19
M  V30 93 1 64 68
M  V30 94 1 64 65
M  V30 95 1 64 52
M  V30 96 1 46 67
M  V30 97 1 65 44
M  V30 98 1 65 69
M  V30 99 1 50 73
M  V30 100 1 56 71
M  V30 101 1 66 24
M  V30 102 1 66 67
M  V30 103 1 66 36
M  V30 104 1 67 70
M  V30 105 1 68 69
M  V30 106 1 68 72
M  V30 107 1 69 45
M  V30 108 1 55 70
M  V30 109 1 70 71
M  V30 110 1 71 72
M  V30 111 1 72 73
M  V30 112 1 57 73
M  V30 113 1 9 65
M  V30 114 1 74 69
M  V30 115 1 63 83
M  V30 116 1 8 85
M  V30 117 1 11 76
M  V30 118 1 75 79
M  V30 119 1 75 78
M  V30 120 1 76 61
M  V30 121 1 76 77
M  V30 122 1 60 79
M  V30 123 1 77 80
M  V30 124 1 77 85
M  V30 125 1 78 80
M  V30 126 1 80 82
M  V30 127 1 27 85
M  V30 128 1 81 83
M  V30 129 1 81 86
M  V30 130 1 82 86
M  V30 131 1 82 84
M  V30 132 1 84 86
M  V30 133 1 30 87
M  V30 134 1 87 97
M  V30 135 1 87 89
M  V30 136 1 79 91
M  V30 137 1 26 96
M  V30 138 1 53 88
M  V30 139 1 39 88
M  V30 140 1 62 91
M  V30 141 1 88 94
M  V30 142 1 89 91
M  V30 143 1 89 97
M  V30 144 1 90 92
M  V30 145 1 90 93
M  V30 146 1 92 94
M  V30 147 1 92 95
M  V30 148 1 83 93
M  V30 149 1 93 95
M  V30 150 1 94 96
M  V30 151 1 95 96
M  V30 152 1 40 98
M  V30 153 1 29 98
M  V30 154 1 97 98
M  V30 155 1 99 21
M  V30 156 1 99 66
M  V30 157 1 100 101
M  V30 158 1 100 86
M  V30 159 1 100 103
M  V30 160 1 101 104
M  V30 161 1 75 102
M  V30 162 1 81 103
M  V30 163 1 103 104
M  V30 164 1 97 121
M  V30 165 1 53 111
M  V30 166 1 105 116
M  V30 167 1 105 107
M  V30 168 1 105 117
M  V30 169 1 106 118
M  V30 170 1 106 113
M  V30 171 1 106 91
M  V30 172 1 107 114
M  V30 173 1 107 88
M  V30 174 1 108 118
M  V30 175 1 108 102
M  V30 176 1 108 109
M  V30 177 1 51 117
M  V30 178 1 109 90
M  V30 179 1 109 112
M  V30 180 1 110 113
M  V30 181 1 110 118
M  V30 182 1 110 120
M  V30 183 1 111 29
M  V30 184 1 111 38
M  V30 185 1 112 115
M  V30 186 1 112 116
M  V30 187 1 113 89
M  V30 188 1 94 114
M  V30 189 1 114 115
M  V30 190 1 115 92
M  V30 191 1 116 119
M  V30 192 1 117 119
M  V30 193 1 119 120
M  V30 194 1 98 121
M  V30 195 1 120 121
M  V30 196 1 122 85
M  V30 197 1 122 123
M  V30 198 1 123 126
M  V30 199 1 124 126
M  V30 200 1 124 125
M  V30 201 1 28 125
M  V30 202 1 125 126
M  V30 203 1 68 127
M  V30 204 1 127 128
M  V30 205 1 71 129
M  V30 206 1 70 128
M  V30 207 1 128 129
M  V30 208 1 129 72
M  V30 209 1 130 104
M  V30 210 1 131 80
M  V30 211 1 132 134
M  V30 212 1 132 109
M  V30 213 1 132 133
M  V30 214 1 103 93
M  V30 215 1 130 134
M  V30 216 1 108 133
M  V30 217 1 133 134
M  V30 218 1 126 135
M  V30 219 1 124 136
M  V30 220 1 123 135
M  V30 221 1 107 143
M  V30 222 1 137 138
M  V30 223 1 137 127
M  V30 224 1 137 128
M  V30 225 1 138 139
M  V30 226 1 138 141
M  V30 227 1 117 49
M  V30 228 1 105 142
M  V30 229 1 139 140
M  V30 230 1 140 143
M  V30 231 1 140 141
M  V30 232 1 141 142
M  V30 233 1 142 143
M  V30 234 1 131 146
M  V30 235 1 144 145
M  V30 236 1 145 146
M  V30 237 1 96 147
M  V30 238 1 147 125
M  V30 239 1 147 150
M  V30 240 1 114 152
M  V30 241 1 148 149
M  V30 242 1 148 139
M  V30 243 1 148 154
M  V30 244 1 143 152
M  V30 245 1 149 153
M  V30 246 1 149 151
M  V30 247 1 136 150
M  V30 248 1 150 151
M  V30 249 1 152 153
M  V30 250 1 153 154
M  V30 251 1 154 140
M  V30 252 1 155 122
M  V30 253 1 155 156
M  V30 254 1 151 156
M  V30 255 1 77 157
M  V30 256 1 157 158
M  V30 257 1 157 155
M  V30 258 1 146 158
M  V30 259 1 159 160
M  V30 260 1 159 144
M  V30 261 1 159 161
M  V30 262 1 134 160
M  V30 263 1 160 161
M  V30 264 1 132 162
M  V30 265 1 112 162
M  V30 266 1 161 162
M  V30 267 1 158 163
M  V30 268 1 157 163
M  V30 269 1 163 156
M  V30 270 1 142 164
M  V30 271 1 152 166
M  V30 272 1 164 170
M  V30 273 1 164 116
M  V30 274 1 165 169
M  V30 275 1 165 171
M  V30 276 1 165 167
M  V30 277 1 166 167
M  V30 278 1 166 171
M  V30 279 1 167 168
M  V30 280 1 168 159
M  V30 281 1 168 170
M  V30 282 1 169 171
M  V30 283 1 169 145
M  V30 284 1 170 172
M  V30 285 1 162 172
M  V30 286 1 161 172
M  V30 287 1 149 173
M  V30 288 1 169 163
M  V30 289 1 171 173
M  V30 290 1 173 174
M  V30 291 1 166 174
M  V30 292 1 174 153
M  V30 293 1 119 186
M  V30 294 1 141 188
M  V30 295 1 175 176
M  V30 296 1 175 177
M  V30 297 1 175 137
M  V30 298 1 176 177
M  V30 299 1 176 178
M  V30 300 1 138 177
M  V30 301 1 129 180
M  V30 302 1 48 185
M  V30 303 1 54 185
M  V30 304 1 178 182
M  V30 305 1 178 184
M  V30 306 1 179 181
M  V30 307 1 179 180
M  V30 308 1 179 183
M  V30 309 1 180 181
M  V30 310 1 181 184
M  V30 311 1 182 183
M  V30 312 1 183 184
M  V30 313 1 185 187
M  V30 314 1 186 188
M  V30 315 1 186 187
M  V30 316 1 164 188
M  V30 317 1 180 195
M  V30 318 1 189 193
M  V30 319 1 189 196
M  V30 320 1 190 197
M  V30 321 1 190 191
M  V30 322 1 191 193
M  V30 323 1 191 196
M  V30 324 1 192 196
M  V30 325 1 192 194
M  V30 326 1 73 194
M  V30 327 1 194 195
M  V30 328 1 187 197
M  V30 329 1 197 185
M  V30 330 1 198 154
M  V30 331 1 198 205
M  V30 332 1 198 206
M  V30 333 1 190 209
M  V30 334 1 176 199
M  V30 335 1 199 204
M  V30 336 1 199 178
M  V30 337 1 200 206
M  V30 338 1 200 201
M  V30 339 1 200 214
M  V30 340 1 201 205
M  V30 341 1 177 203
M  V30 342 1 197 207
M  V30 343 1 202 203
M  V30 344 1 202 204
M  V30 345 1 202 205
M  V30 346 1 203 148
M  V30 347 1 186 207
M  V30 348 1 206 210
M  V30 349 1 207 208
M  V30 350 1 208 209
M  V30 351 1 208 213
M  V30 352 1 209 214
M  V30 353 1 188 212
M  V30 354 1 210 212
M  V30 355 1 210 211
M  V30 356 1 211 213
M  V30 357 1 211 212
M  V30 358 1 213 214
M  V30 359 1 195 216
M  V30 360 1 192 217
M  V30 361 1 181 216
M  V30 362 1 215 189
M  V30 363 1 196 217
M  V30 364 1 193 220
M  V30 365 1 184 219
M  V30 366 1 218 227
M  V30 367 1 218 224
M  V30 368 1 218 209
M  V30 369 1 219 223
M  V30 370 1 199 223
M  V30 371 1 220 227
M  V30 372 1 220 224
M  V30 373 1 221 222
M  V30 374 1 222 226
M  V30 375 1 222 225
M  V30 376 1 204 223
M  V30 377 1 224 191
M  V30 378 1 225 228
M  V30 379 1 225 227
M  V30 380 1 200 226
M  V30 381 1 226 228
M  V30 382 1 214 228
M  V30 383 1 229 231
M  V30 384 1 229 237
M  V30 385 1 229 230
M  V30 386 1 220 232
M  V30 387 1 230 219
M  V30 388 1 230 236
M  V30 389 1 231 233
M  V30 390 1 231 234
M  V30 391 1 216 234
M  V30 392 1 215 232
M  V30 393 1 232 234
M  V30 394 1 233 237
M  V30 395 1 233 238
M  V30 396 1 235 222
M  V30 397 1 235 221
M  V30 398 1 235 236
M  V30 399 1 236 237
M  V30 400 1 238 225
M  V30 401 1 238 227
M  V30 402 1 234 239
M  V30 403 1 239 240
M  V30 404 1 194 240
M  V30 405 1 241 242
M  V30 406 1 241 236
M  V30 407 1 230 223
M  V30 408 1 202 242
M  V30 409 1 240 246
M  V30 410 1 224 247
M  V30 411 1 243 248
M  V30 412 1 243 245
M  V30 413 1 239 244
M  V30 414 1 244 248
M  V30 415 1 244 245
M  V30 416 1 245 246
M  V30 417 1 241 250
M  V30 418 1 249 198
M  V30 419 1 249 251
M  V30 420 1 242 250
M  V30 421 1 251 226
M  V30 422 1 251 206
M  V30 423 1 231 252
M  V30 424 1 244 252
M  V30 425 1 252 254
M  V30 426 1 253 258
M  V30 427 1 253 260
M  V30 428 1 253 255
M  V30 429 1 254 257
M  V30 430 1 255 247
M  V30 431 1 255 218
M  V30 432 1 238 256
M  V30 433 1 233 256
M  V30 434 1 256 257
M  V30 435 1 257 258
M  V30 436 1 258 259
M  V30 437 1 259 260
M  V30 438 1 261 207
M  V30 439 1 261 262
M  V30 440 1 255 262
M  V30 441 1 246 58
M  V30 442 1 208 262
M  V30 443 1 263 250
M  V30 444 1 263 268
M  V30 445 1 237 267
M  V30 446 1 264 228
M  V30 447 1 264 266
M  V30 448 1 265 268
M  V30 449 1 265 267
M  V30 450 1 266 267
M  V30 451 1 266 256
M  V30 452 1 251 269
M  V30 453 1 203 173
M  V30 454 1 174 270
M  V30 455 1 270 263
M  V30 456 1 260 271
M  V30 457 1 243 274
M  V30 458 1 272 273
M  V30 459 1 272 252
M  V30 460 1 272 274
M  V30 461 1 273 254
M  V30 462 1 245 274
M  V30 463 1 275 59
M  V30 464 1 275 276
M  V30 465 1 275 277
M  V30 466 1 274 277
M  V30 467 1 120 278
M  V30 468 1 41 276
M  V30 469 1 261 278
M  V30 470 1 276 277
M  V30 471 1 278 121
M  V30 472 1 279 268
M  V30 473 1 279 265
M  V30 474 1 269 210
M  V30 475 1 280 213
M  V30 476 1 280 282
M  V30 477 1 280 283
M  V30 478 1 281 283
M  V30 479 1 281 284
M  V30 480 1 211 282
M  V30 481 1 264 285
M  V30 482 1 282 284
M  V30 483 1 283 285
M  V30 484 1 170 212
M  V30 485 1 270 286
M  V30 486 1 168 286
M  V30 487 1 167 286
M  V30 488 1 287 262
M  V30 489 1 287 291
M  V30 490 1 287 290
M  V30 491 1 118 289
M  V30 492 1 172 282
M  V30 493 1 288 110
M  V30 494 1 288 289
M  V30 495 1 289 133
M  V30 496 1 278 291
M  V30 497 1 290 291
M  V30 498 1 277 272
M  V30 499 1 87 292
M  V30 500 1 253 287
M  V30 501 1 276 292
M  V30 502 1 291 294
M  V30 503 1 273 293
M  V30 504 1 292 293
M  V30 505 1 293 294
M  V30 506 1 271 294
M  V30 507 1 293 296
M  V30 508 1 257 295
M  V30 509 1 295 296
M  V30 510 1 267 297
M  V30 511 1 284 301
M  V30 512 1 266 298
M  V30 513 1 297 300
M  V30 514 1 297 302
M  V30 515 1 279 300
M  V30 516 1 298 299
M  V30 517 1 299 302
M  V30 518 1 300 301
M  V30 519 1 301 302
M  V30 520 1 301 160
M  V30 521 1 300 286
M  V30 522 1 299 303
M  V30 523 1 303 288
M  V30 524 1 302 289
M  V30 525 1 292 113
M  V30 526 1 296 304
M  V30 527 1 303 305
M  V30 528 1 304 305
M  V30 529 1 304 295
M  V30 530 1 305 298
M  V30 END BOND
M  V30 END CTAB
M  END
