
     RDKit          3D

  0  0  0  0  0  0  0  0  0  0999 V3000
M  V30 BEGIN CTAB
M  V30 COUNTS 184 222 0 0 0
M  V30 BEGIN ATOM
M  V30 1 F 0.000000 0.000000 12.695000 0
M  V30 2 F 1.569000 0.496000 13.845000 0
M  V30 3 F -1.214000 1.110000 13.845000 0
M  V30 4 F -0.354000 -1.607000 13.845000 0
M  V30 5 F 1.440000 -0.700000 11.594000 0
M  V30 6 F -0.114000 1.598000 11.594000 0
M  V30 7 F -1.327000 -0.897000 11.594000 0
M  V30 8 F 2.765000 0.280000 13.267000 0
M  V30 9 F -1.625000 2.255000 13.267000 0
M  V30 10 F -1.140000 -2.534000 13.267000 0
M  V30 11 F 2.672000 -0.412000 12.049000 0
M  V30 12 F -0.980000 2.520000 12.049000 0
M  V30 13 F -1.693000 -2.108000 12.049000 0
M  V30 14 F 4.012000 0.682000 13.764000 0
M  V30 15 F -2.597000 3.134000 13.764000 0
M  V30 16 F -1.415000 -3.816000 13.764000 0
M  V30 17 F 3.842000 -0.693000 11.306000 0
M  V30 18 F -1.320000 3.673000 11.306000 0
M  V30 19 F -2.521000 -2.980000 11.306000 0
M  V30 20 F 5.167000 0.433000 13.009000 0
M  V30 21 F 4.190000 1.390000 15.029000 0
M  V30 22 F -2.959000 4.258000 13.009000 0
M  V30 23 F -3.299000 2.933000 15.029000 0
M  V30 24 F -2.208000 -4.692000 13.009000 0
M  V30 25 F -0.891000 -4.323000 15.029000 0
M  V30 26 F 5.083000 -0.280000 11.813000 0
M  V30 27 F -2.299000 4.542000 11.813000 0
M  V30 28 F -2.784000 -4.262000 11.813000 0
M  V30 29 F 3.078000 1.670000 15.712000 0
M  V30 30 F -2.985000 1.830000 15.712000 0
M  V30 31 F -0.093000 -3.500000 15.712000 0
M  V30 32 F 2.970000 2.444000 16.941000 0
M  V30 33 F -3.602000 1.350000 16.941000 0
M  V30 34 F 0.632000 -3.794000 16.941000 0
M  V30 35 F 3.937000 2.246000 17.940000 0
M  V30 36 F 1.877000 3.291000 17.174000 0
M  V30 37 F -3.913000 2.287000 17.940000 0
M  V30 38 F -3.788000 -0.020000 17.174000 0
M  V30 39 F -0.024000 -4.533000 17.940000 0
M  V30 40 F 1.911000 -3.271000 17.174000 0
M  V30 41 F 3.866000 3.016000 19.104000 0
M  V30 42 F 1.819000 4.081000 18.337000 0
M  V30 43 F 0.891000 3.460000 16.165000 0
M  V30 44 F -4.545000 1.839000 19.104000 0
M  V30 45 F -4.444000 -0.466000 18.337000 0
M  V30 46 F -3.442000 -0.959000 16.165000 0
M  V30 47 F 0.680000 -4.856000 19.104000 0
M  V30 48 F 2.625000 -3.616000 18.337000 0
M  V30 49 F 2.551000 -2.502000 16.165000 0
M  V30 50 F 2.808000 3.924000 19.322000 0
M  V30 51 F 0.744000 4.964000 18.540000 0
M  V30 52 F -0.154000 4.358000 16.402000 0
M  V30 53 F -4.802000 0.469000 19.322000 0
M  V30 54 F -4.671000 -1.838000 18.540000 0
M  V30 55 F -3.697000 -2.312000 16.402000 0
M  V30 56 F 1.995000 -4.394000 19.322000 0
M  V30 57 F 3.927000 -3.127000 18.540000 0
M  V30 58 F 3.851000 -2.045000 16.402000 0
M  V30 59 F 0.788000 5.849000 19.647000 0
M  V30 60 F -0.260000 5.114000 17.575000 0
M  V30 61 F -5.459000 -2.242000 19.647000 0
M  V30 62 F -4.299000 -2.782000 17.575000 0
M  V30 63 F 4.671000 -3.607000 19.647000 0
M  V30 64 F 4.559000 -2.332000 17.575000 0
M  V30 65 F 0.058000 6.968000 19.955000 0
M  V30 66 F -6.064000 -3.433000 19.955000 0
M  V30 67 F 6.005000 -3.534000 19.955000 0
M  V30 68 F 0.466000 7.771000 21.070000 0
M  V30 69 F -6.963000 -3.482000 21.070000 0
M  V30 70 F 6.497000 -4.289000 21.070000 0
M  V30 71 F -0.314000 8.934000 21.350000 0
M  V30 72 F 1.570000 7.488000 21.881000 0
M  V30 73 F -7.580000 -4.739000 21.350000 0
M  V30 74 F -7.269000 -2.385000 21.881000 0
M  V30 75 F 7.894000 -4.195000 21.350000 0
M  V30 76 F 5.700000 -5.103000 21.881000 0
M  V30 77 F 0.091000 9.746000 22.405000 0
M  V30 78 F 3.836000 6.338000 23.130000 0
M  V30 79 F 2.357000 6.401000 21.785000 0
M  V30 80 F 1.909000 8.300000 22.962000 0
M  V30 81 F -8.486000 -4.794000 22.405000 0
M  V30 82 F -7.407000 0.153000 23.130000 0
M  V30 83 F -6.722000 -1.159000 21.785000 0
M  V30 84 F -8.143000 -2.497000 22.962000 0
M  V30 85 F 8.395000 -4.952000 22.405000 0
M  V30 86 F 3.571000 -6.491000 23.130000 0
M  V30 87 F 4.365000 -5.242000 21.785000 0
M  V30 88 F 6.233000 -5.804000 22.962000 0
M  V30 89 F 1.174000 9.481000 23.227000 0
M  V30 90 F 2.995000 7.982000 23.698000 0
M  V30 91 F 4.759000 4.827000 22.256000 0
M  V30 92 F 5.160000 7.302000 22.176000 0
M  V30 93 F 4.868000 6.266000 24.791000 0
M  V30 94 F 2.715000 5.136000 24.176000 0
M  V30 95 F 5.876000 5.145000 21.562000 0
M  V30 96 F 6.050000 6.536000 21.484000 0
M  V30 97 F 4.358000 5.527000 25.718000 0
M  V30 98 F 3.087000 4.961000 25.476000 0
M  V30 99 F -8.797000 -3.724000 23.227000 0
M  V30 100 F -8.411000 -1.397000 23.698000 0
M  V30 101 F -6.560000 1.708000 22.256000 0
M  V30 102 F -8.904000 0.818000 22.176000 0
M  V30 103 F -7.860000 1.083000 24.791000 0
M  V30 104 F -5.805000 -0.217000 24.176000 0
M  V30 105 F -7.393000 2.516000 21.562000 0
M  V30 106 F -8.686000 1.971000 21.484000 0
M  V30 107 F -6.966000 1.011000 25.718000 0
M  V30 108 F -5.839000 0.193000 25.476000 0
M  V30 109 F 7.624000 -5.757000 23.227000 0
M  V30 110 F 5.415000 -6.585000 23.698000 0
M  V30 111 F 1.801000 -6.535000 22.256000 0
M  V30 112 F 3.744000 -8.120000 22.176000 0
M  V30 113 F 2.992000 -7.349000 24.791000 0
M  V30 114 F 3.090000 -4.919000 24.176000 0
M  V30 115 F 1.517000 -7.661000 21.562000 0
M  V30 116 F 2.636000 -8.508000 21.484000 0
M  V30 117 F 2.608000 -6.538000 25.718000 0
M  V30 118 F 2.752000 -5.154000 25.476000 0
M  V30 119 F 6.803000 4.264000 20.970000 0
M  V30 120 F 7.171000 7.045000 20.789000 0
M  V30 121 F 4.910000 5.356000 27.014000 0
M  V30 122 F 2.382000 4.213000 26.423000 0
M  V30 123 F -7.094000 3.760000 20.970000 0
M  V30 124 F -9.687000 2.688000 20.789000 0
M  V30 125 F -7.093000 1.574000 27.014000 0
M  V30 126 F -4.840000 -0.043000 26.423000 0
M  V30 127 F 0.291000 -8.024000 20.970000 0
M  V30 128 F 2.516000 -9.733000 20.789000 0
M  V30 129 F 2.183000 -6.930000 27.014000 0
M  V30 130 F 2.458000 -4.170000 26.423000 0
M  V30 131 F 7.892000 4.773000 20.210000 0
M  V30 132 F 6.809000 2.839000 21.173000 0
M  V30 133 F 8.034000 6.168000 20.110000 0
M  V30 134 F 4.241000 4.619000 27.965000 0
M  V30 135 F 2.964000 4.062000 27.718000 0
M  V30 136 F 1.057000 3.708000 26.201000 0
M  V30 137 F -8.079000 4.448000 20.210000 0
M  V30 138 F -5.863000 4.477000 21.173000 0
M  V30 139 F -9.359000 3.874000 20.110000 0
M  V30 140 F -6.121000 1.363000 27.965000 0
M  V30 141 F -4.999000 0.536000 27.718000 0
M  V30 142 F -3.739000 -0.939000 26.201000 0
M  V30 143 F 0.188000 -9.221000 20.210000 0
M  V30 144 F -0.945000 -7.316000 21.173000 0
M  V30 145 F 1.325000 -10.042000 20.110000 0
M  V30 146 F 1.880000 -5.982000 27.965000 0
M  V30 147 F 2.035000 -4.598000 27.718000 0
M  V30 148 F 2.683000 -2.769000 26.201000 0
M  V30 149 F 5.944000 2.334000 22.051000 0
M  V30 150 F 0.483000 3.915000 25.033000 0
M  V30 151 F -4.993000 3.980000 22.051000 0
M  V30 152 F -3.632000 -1.540000 25.033000 0
M  V30 153 F -0.950000 -6.314000 22.051000 0
M  V30 154 F 3.150000 -2.376000 25.033000 0
M  V30 155 F 5.751000 0.971000 22.521000 0
M  V30 156 F -0.796000 3.437000 24.549000 0
M  V30 157 F -3.716000 4.495000 22.521000 0
M  V30 158 F -2.578000 -2.408000 24.549000 0
M  V30 159 F -2.034000 -5.466000 22.521000 0
M  V30 160 F 3.375000 -1.029000 24.549000 0
M  V30 161 F 6.811000 0.052000 22.334000 0
M  V30 162 F 4.602000 0.635000 23.242000 0
M  V30 163 F -1.648000 4.201000 23.747000 0
M  V30 164 F -1.126000 2.090000 24.786000 0
M  V30 165 F -3.451000 5.872000 22.334000 0
M  V30 166 F -2.851000 3.668000 23.242000 0
M  V30 167 F -2.814000 -3.527000 23.747000 0
M  V30 168 F -1.248000 -2.020000 24.786000 0
M  V30 169 F -3.360000 -5.924000 22.334000 0
M  V30 170 F -1.751000 -4.303000 23.242000 0
M  V30 171 F 4.462000 -0.673000 23.747000 0
M  V30 172 F 2.373000 -0.070000 24.786000 0
M  V30 173 F 6.627000 -1.251000 22.828000 0
M  V30 174 F 3.612000 1.607000 23.512000 0
M  V30 175 F -1.365000 5.567000 23.551000 0
M  V30 176 F -2.313000 1.554000 24.254000 0
M  V30 177 F -2.230000 6.365000 22.828000 0
M  V30 178 F -3.197000 2.325000 23.512000 0
M  V30 179 F -4.139000 -3.966000 23.551000 0
M  V30 180 F -0.190000 -2.780000 24.254000 0
M  V30 181 F -4.397000 -5.114000 22.828000 0
M  V30 182 F -0.415000 -3.932000 23.512000 0
M  V30 183 F 5.504000 -1.601000 23.551000 0
M  V30 184 F 2.502000 1.226000 24.254000 0
M  V30 END ATOM
M  V30 BEGIN BOND
M  V30 1 1 1 7
M  V30 2 1 1 6
M  V30 3 1 1 5
M  V30 4 1 1 2
M  V30 5 1 1 4
M  V30 6 1 1 3
M  V30 7 1 2 8
M  V30 8 1 3 9
M  V30 9 1 4 10
M  V30 10 1 5 11
M  V30 11 1 6 12
M  V30 12 1 7 13
M  V30 13 1 8 11
M  V30 14 1 8 14
M  V30 15 1 9 12
M  V30 16 1 9 15
M  V30 17 1 10 13
M  V30 18 1 10 16
M  V30 19 1 11 17
M  V30 20 1 12 18
M  V30 21 1 13 19
M  V30 22 1 14 20
M  V30 23 1 14 21
M  V30 24 1 15 22
M  V30 25 1 15 23
M  V30 26 1 16 24
M  V30 27 1 16 25
M  V30 28 1 17 26
M  V30 29 1 18 27
M  V30 30 1 19 28
M  V30 31 1 20 26
M  V30 32 1 21 29
M  V30 33 1 22 27
M  V30 34 1 23 30
M  V30 35 1 24 28
M  V30 36 1 25 31
M  V30 37 1 29 32
M  V30 38 1 30 33
M  V30 39 1 31 34
M  V30 40 1 32 36
M  V30 41 1 32 35
M  V30 42 1 33 38
M  V30 43 1 33 37
M  V30 44 1 34 40
M  V30 45 1 34 39
M  V30 46 1 35 41
M  V30 47 1 36 43
M  V30 48 1 36 42
M  V30 49 1 37 44
M  V30 50 1 38 46
M  V30 51 1 38 45
M  V30 52 1 39 47
M  V30 53 1 40 49
M  V30 54 1 40 48
M  V30 55 1 41 50
M  V30 56 1 42 51
M  V30 57 1 42 50
M  V30 58 1 43 52
M  V30 59 1 44 53
M  V30 60 1 45 54
M  V30 61 1 45 53
M  V30 62 1 46 55
M  V30 63 1 47 56
M  V30 64 1 48 57
M  V30 65 1 48 56
M  V30 66 1 49 58
M  V30 67 1 51 60
M  V30 68 1 51 59
M  V30 69 1 52 60
M  V30 70 1 54 62
M  V30 71 1 54 61
M  V30 72 1 55 62
M  V30 73 1 57 64
M  V30 74 1 57 63
M  V30 75 1 58 64
M  V30 76 1 59 65
M  V30 77 1 61 66
M  V30 78 1 63 67
M  V30 79 1 65 68
M  V30 80 1 66 69
M  V30 81 1 67 70
M  V30 82 1 68 71
M  V30 83 1 68 72
M  V30 84 1 69 73
M  V30 85 1 69 74
M  V30 86 1 70 75
M  V30 87 1 70 76
M  V30 88 1 71 77
M  V30 89 1 72 79
M  V30 90 1 72 80
M  V30 91 1 73 81
M  V30 92 1 74 83
M  V30 93 1 74 84
M  V30 94 1 75 85
M  V30 95 1 76 87
M  V30 96 1 76 88
M  V30 97 1 77 89
M  V30 98 1 78 79
M  V30 99 1 78 92
M  V30 100 1 78 91
M  V30 101 1 78 90
M  V30 102 1 78 94
M  V30 103 1 78 93
M  V30 104 1 80 89
M  V30 105 1 80 90
M  V30 106 1 81 99
M  V30 107 1 82 83
M  V30 108 1 82 102
M  V30 109 1 82 101
M  V30 110 1 82 100
M  V30 111 1 82 104
M  V30 112 1 82 103
M  V30 113 1 84 99
M  V30 114 1 84 100
M  V30 115 1 85 109
M  V30 116 1 86 87
M  V30 117 1 86 112
M  V30 118 1 86 111
M  V30 119 1 86 110
M  V30 120 1 86 114
M  V30 121 1 86 113
M  V30 122 1 88 109
M  V30 123 1 88 110
M  V30 124 1 91 95
M  V30 125 1 92 96
M  V30 126 1 93 97
M  V30 127 1 94 98
M  V30 128 1 95 119
M  V30 129 1 95 96
M  V30 130 1 96 120
M  V30 131 1 97 98
M  V30 132 1 97 121
M  V30 133 1 98 122
M  V30 134 1 101 105
M  V30 135 1 102 106
M  V30 136 1 103 107
M  V30 137 1 104 108
M  V30 138 1 105 123
M  V30 139 1 105 106
M  V30 140 1 106 124
M  V30 141 1 107 108
M  V30 142 1 107 125
M  V30 143 1 108 126
M  V30 144 1 111 115
M  V30 145 1 112 116
M  V30 146 1 113 117
M  V30 147 1 114 118
M  V30 148 1 115 127
M  V30 149 1 115 116
M  V30 150 1 116 128
M  V30 151 1 117 118
M  V30 152 1 117 129
M  V30 153 1 118 130
M  V30 154 1 119 131
M  V30 155 1 119 132
M  V30 156 1 120 133
M  V30 157 1 121 134
M  V30 158 1 122 136
M  V30 159 1 122 135
M  V30 160 1 123 137
M  V30 161 1 123 138
M  V30 162 1 124 139
M  V30 163 1 125 140
M  V30 164 1 126 142
M  V30 165 1 126 141
M  V30 166 1 127 143
M  V30 167 1 127 144
M  V30 168 1 128 145
M  V30 169 1 129 146
M  V30 170 1 130 148
M  V30 171 1 130 147
M  V30 172 1 131 133
M  V30 173 1 132 149
M  V30 174 1 134 135
M  V30 175 1 136 150
M  V30 176 1 137 139
M  V30 177 1 138 151
M  V30 178 1 140 141
M  V30 179 1 142 152
M  V30 180 1 143 145
M  V30 181 1 144 153
M  V30 182 1 146 147
M  V30 183 1 148 154
M  V30 184 1 149 155
M  V30 185 1 150 156
M  V30 186 1 151 157
M  V30 187 1 152 158
M  V30 188 1 153 159
M  V30 189 1 154 160
M  V30 190 1 155 161
M  V30 191 1 155 162
M  V30 192 1 156 163
M  V30 193 1 156 164
M  V30 194 1 157 165
M  V30 195 1 157 166
M  V30 196 1 158 167
M  V30 197 1 158 168
M  V30 198 1 159 169
M  V30 199 1 159 170
M  V30 200 1 160 171
M  V30 201 1 160 172
M  V30 202 1 161 173
M  V30 203 1 162 174
M  V30 204 1 162 171
M  V30 205 1 163 166
M  V30 206 1 163 175
M  V30 207 1 164 176
M  V30 208 1 165 177
M  V30 209 1 166 178
M  V30 210 1 167 170
M  V30 211 1 167 179
M  V30 212 1 168 180
M  V30 213 1 169 181
M  V30 214 1 170 182
M  V30 215 1 171 183
M  V30 216 1 172 184
M  V30 217 1 173 183
M  V30 218 1 174 184
M  V30 219 1 175 177
M  V30 220 1 176 178
M  V30 221 1 179 181
M  V30 222 1 180 182
M  V30 END BOND
M  V30 END CTAB
M  END
