	232

C	11.197000	6.463000	71.668000
C	1.481000	7.836000	85.255000
C	0.730000	6.294000	86.510000
C	2.060000	6.290000	84.193000
C	10.850000	4.792000	72.620000
C	12.295000	5.236000	70.585000
C	0.166000	6.407000	87.722000
C	-0.189000	5.269000	88.437000
C	0.058000	4.037000	87.877000
C	0.650000	3.938000	86.633000
C	1.013000	5.090000	85.945000
C	1.748000	5.106000	84.695000
C	2.882000	6.337000	83.016000
C	2.382000	6.768000	81.795000
C	3.150000	6.771000	80.643000
C	4.475000	6.331000	80.661000
C	4.964000	5.903000	81.887000
C	4.208000	5.912000	83.048000
C	5.342000	6.415000	79.455000
C	5.594000	7.634000	78.864000
C	6.356000	7.735000	77.707000
C	6.914000	6.655000	77.098000
C	6.727000	5.377000	77.672000
C	5.927000	5.259000	78.855000
C	5.732000	3.964000	79.393000
C	6.280000	2.868000	78.779000
C	7.032000	2.980000	77.616000
C	7.302000	4.216000	77.073000
C	8.251000	4.313000	75.926000
C	9.631000	4.365000	76.116000
C	10.487000	4.536000	75.040000
C	10.014000	4.602000	73.745000
C	8.632000	4.541000	73.552000
C	7.769000	4.404000	74.619000
C	11.484000	3.715000	72.221000
C	12.289000	3.966000	71.036000
C	13.008000	2.984000	70.366000
C	13.725000	3.329000	69.232000
C	13.756000	4.640000	68.806000
C	13.039000	5.579000	69.503000
C	0.025000	8.268000	84.179000
C	2.438000	9.168000	84.202000
C	16.238000	12.891000	86.629000
C	18.654000	14.004000	86.642000
C	-1.180000	7.687000	84.311000
C	-2.155000	8.088000	83.451000
C	-1.923000	9.056000	82.507000
C	-0.656000	9.626000	82.398000
C	0.337000	9.193000	83.256000
C	1.706000	9.692000	83.251000
C	3.780000	9.610000	84.269000
C	4.243000	10.332000	85.356000
C	5.588000	10.690000	85.378000
C	6.447000	10.372000	84.332000
C	5.945000	9.696000	83.225000
C	4.625000	9.298000	83.218000
C	7.875000	10.805000	84.305000
C	8.310000	11.544000	83.231000
C	9.614000	12.036000	83.184000
C	10.489000	11.772000	84.206000
C	10.098000	11.018000	85.342000
C	8.750000	10.514000	85.380000
C	8.380000	9.717000	86.485000
C	9.254000	9.428000	87.485000
C	10.552000	9.926000	87.467000
C	10.975000	10.725000	86.436000
C	12.350000	11.303000	86.479000
C	13.436000	10.570000	86.044000
C	14.713000	11.115000	86.087000
C	14.916000	12.393000	86.541000
C	13.831000	13.147000	86.963000
C	12.558000	12.602000	86.942000
C	16.902000	12.734000	87.698000
C	18.226000	13.329000	87.738000
C	19.072000	13.227000	88.839000
C	20.319000	13.820000	88.809000
C	20.722000	14.483000	87.691000
C	19.874000	14.586000	86.626000
C	14.864000	-2.635000	85.255000
C	16.575000	-2.515000	86.510000
C	15.913000	-1.361000	84.193000
C	12.817000	7.000000	72.620000
C	11.709000	8.030000	70.585000
C	16.760000	-3.060000	87.722000
C	17.923000	-2.798000	88.437000
C	18.866000	-1.968000	87.877000
C	18.655000	-1.406000	86.633000
C	17.476000	-1.668000	85.945000
C	17.096000	-1.039000	84.695000
C	15.462000	-0.673000	83.016000
C	15.339000	-1.321000	81.795000
C	14.952000	-0.657000	80.643000
C	14.671000	0.710000	80.661000
C	14.797000	1.348000	81.887000
C	15.167000	0.688000	83.048000
C	14.165000	1.419000	79.455000
C	12.982000	1.028000	78.864000
C	12.514000	1.637000	77.707000
C	13.170000	2.660000	77.098000
C	14.371000	3.137000	77.672000
C	14.873000	2.503000	78.855000
C	16.092000	2.982000	79.393000
C	16.767000	4.004000	78.779000
C	16.294000	4.600000	77.616000
C	15.089000	4.216000	77.073000
C	14.531000	4.989000	75.926000
C	13.795000	6.159000	76.116000
C	13.220000	6.814000	75.040000
C	13.399000	6.372000	73.745000
C	14.142000	5.205000	73.552000
C	14.693000	4.526000	74.619000
C	13.431000	8.088000	72.221000
C	12.812000	8.660000	71.036000
C	13.302000	9.773000	70.366000
C	12.645000	10.221000	69.232000
C	11.494000	9.593000	68.806000
C	11.040000	8.503000	69.503000
C	15.218000	-4.113000	84.179000
C	13.232000	-2.472000	84.202000
C	3.108000	7.617000	86.629000
C	0.936000	9.153000	86.642000
C	16.324000	-4.865000	84.311000
C	16.464000	-5.910000	83.451000
C	15.510000	-6.194000	82.507000
C	14.383000	-5.381000	82.398000
C	14.261000	-4.305000	83.256000
C	13.145000	-3.368000	83.251000
C	12.178000	-1.532000	84.269000
C	11.322000	-1.491000	85.356000
C	10.339000	-0.506000	85.378000
C	10.185000	0.398000	84.332000
C	11.022000	0.301000	83.225000
C	12.026000	-0.644000	83.218000
C	9.096000	1.417000	84.305000
C	8.239000	1.425000	83.231000
C	7.161000	2.308000	83.184000
C	6.951000	3.198000	84.206000
C	7.800000	3.236000	85.342000
C	8.911000	2.321000	85.380000
C	9.786000	2.399000	86.485000
C	9.599000	3.300000	87.485000
C	8.519000	4.175000	87.467000
C	7.615000	4.142000	86.436000
C	6.427000	5.044000	86.479000
C	6.519000	6.351000	86.044000
C	5.409000	7.184000	86.087000
C	4.201000	6.721000	86.541000
C	4.090000	5.404000	86.963000
C	5.198000	4.574000	86.942000
C	2.912000	8.270000	87.698000
C	1.734000	9.120000	87.738000
C	1.401000	9.903000	88.839000
C	0.263000	10.686000	88.809000
C	-0.513000	10.704000	87.691000
C	-0.178000	9.919000	86.626000
C	17.241000	14.190000	85.255000
C	16.282000	15.612000	86.510000
C	15.613000	14.462000	84.193000
C	9.920000	7.599000	72.620000
C	9.582000	6.126000	70.585000
C	16.661000	16.044000	87.722000
C	15.853000	16.921000	88.437000
C	14.663000	17.322000	87.877000
C	14.281000	16.859000	86.633000
C	15.097000	15.969000	85.945000
C	14.743000	15.325000	84.695000
C	15.243000	13.727000	83.016000
C	15.865000	13.944000	81.795000
C	15.485000	13.277000	80.643000
C	14.441000	12.350000	80.661000
C	13.825000	12.141000	81.887000
C	14.212000	12.790000	83.048000
C	14.079000	11.557000	79.455000
C	15.010000	10.729000	78.864000
C	14.716000	10.019000	77.707000
C	13.502000	10.076000	77.098000
C	12.489000	10.877000	77.672000
C	12.786000	11.629000	78.855000
C	11.762000	12.445000	79.393000
C	10.539000	12.519000	78.779000
C	10.261000	11.811000	77.616000
C	11.195000	10.960000	77.073000
C	10.805000	10.089000	75.926000
C	10.160000	8.868000	76.116000
C	9.880000	8.042000	75.040000
C	10.173000	8.418000	73.745000
C	10.813000	9.645000	73.552000
C	11.125000	10.462000	74.619000
C	8.671000	7.588000	72.221000
C	8.485000	6.766000	71.036000
C	7.276000	6.634000	70.366000
C	7.217000	5.841000	69.232000
C	8.336000	5.158000	68.806000
C	9.507000	5.309000	69.503000
C	18.344000	15.236000	84.179000
C	17.916000	12.695000	84.202000
C	14.241000	-1.117000	86.629000
C	13.997000	-3.766000	86.642000
C	18.442000	16.570000	84.311000
C	19.278000	17.214000	83.451000
C	20.000000	16.529000	82.507000
C	19.860000	15.146000	82.398000
C	18.989000	14.503000	83.256000
C	18.736000	13.068000	83.251000
C	17.628000	11.313000	84.269000
C	18.021000	10.551000	85.356000
C	17.660000	9.207000	85.378000
C	16.954000	8.621000	84.332000
C	16.620000	9.395000	83.225000
C	16.935000	10.737000	83.218000
C	16.615000	7.169000	84.305000
C	17.037000	6.422000	83.231000
C	16.812000	5.048000	83.184000
C	16.146000	4.421000	84.206000
C	15.688000	5.137000	85.342000
C	15.926000	6.556000	85.380000
C	15.421000	7.276000	86.485000
C	14.733000	6.663000	87.485000
C	14.516000	5.290000	87.467000
C	14.996000	4.524000	86.436000
C	14.809000	3.044000	86.479000
C	13.632000	2.470000	86.044000
C	13.465000	1.092000	86.087000
C	14.470000	0.277000	86.541000
C	15.666000	0.840000	86.963000
C	15.830000	2.214000	86.942000
C	13.773000	-1.613000	87.698000
C	13.626000	-3.058000	87.738000
C	13.114000	-3.739000	88.839000
C	13.005000	-5.115000	88.809000
C	13.377000	-5.796000	87.691000
C	13.890000	-5.113000	86.626000
