	114

C	-7.859000	31.580000	6.793000
C	-8.725000	32.545000	7.311000
C	-8.104000	30.224000	7.036000
C	-6.601000	31.927000	6.003000
C	-9.184000	29.839000	7.806000
C	-9.505000	28.571000	8.189000
C	-10.062000	30.808000	8.319000
C	-9.858000	32.127000	8.066000
C	-11.069000	30.243000	9.066000
C	-8.478000	34.040000	7.184000
C	-7.755000	34.605000	8.400000
C	-6.365000	34.823000	8.456000
C	-8.554000	34.894000	9.530000
C	-7.968000	35.379000	10.673000
C	-8.591000	35.649000	11.858000
C	-6.595000	35.655000	10.707000
C	-6.203000	36.168000	11.916000
C	-5.803000	35.380000	9.613000
C	-5.415000	34.457000	7.307000
C	-4.806000	33.065000	7.465000
C	-3.651000	32.953000	8.263000
C	-5.356000	31.912000	6.869000
C	-3.086000	31.704000	8.470000
C	-1.999000	31.419000	9.240000
C	-3.641000	30.574000	7.887000
C	-2.969000	29.429000	8.218000
C	-4.747000	30.661000	7.085000
C	-6.681000	36.093000	17.878000
C	-8.059000	35.836000	17.901000
C	-6.037000	36.364000	16.658000
C	-5.806000	35.993000	19.114000
C	-6.761000	36.312000	15.489000
C	-6.284000	36.526000	14.217000
C	-8.099000	35.966000	15.505000
C	-8.770000	35.761000	16.691000
C	-8.639000	35.867000	14.235000
C	-8.847000	35.573000	19.174000
C	-9.125000	34.099000	19.411000
C	-8.321000	33.292000	20.207000
C	-10.223000	33.535000	18.722000
C	-10.460000	32.193000	18.814000
C	-11.434000	31.484000	18.161000
C	-9.671000	31.388000	19.622000
C	-10.067000	30.072000	19.610000
C	-8.612000	31.913000	20.328000
C	-7.074000	33.800000	20.910000
C	-5.811000	33.597000	20.078000
C	-5.226000	34.591000	19.272000
C	-5.231000	32.314000	20.107000
C	-4.108000	32.049000	19.353000
C	-3.441000	30.855000	19.268000
C	-3.527000	33.043000	18.574000
C	-4.077000	34.302000	18.523000
C	-2.414000	32.606000	17.894000
C	-12.006000	25.489000	16.339000
C	-11.430000	26.081000	17.469000
C	-12.786000	26.283000	15.479000
C	-11.753000	24.007000	16.098000
C	-11.598000	27.421000	17.710000
C	-11.093000	28.136000	18.768000
C	-12.323000	28.218000	16.832000
C	-12.324000	29.531000	17.193000
C	-12.930000	27.662000	15.733000
C	-13.482000	25.739000	14.230000
C	-12.669000	25.936000	12.966000
C	-11.840000	24.952000	12.420000
C	-12.738000	27.200000	12.353000
C	-11.988000	27.454000	11.234000
C	-11.922000	28.641000	10.538000
C	-11.155000	26.484000	10.690000
C	-10.445000	26.931000	9.603000
C	-11.071000	25.238000	11.270000
C	-11.657000	23.582000	13.051000
C	-10.420000	23.524000	13.947000
C	-10.467000	23.738000	15.333000
C	-9.176000	23.322000	13.309000
C	-8.029000	23.348000	14.042000
C	-6.753000	23.228000	13.561000
C	-8.064000	23.543000	15.426000
C	-6.813000	23.563000	15.983000
C	-9.266000	23.738000	16.061000
C	0.131000	26.476000	12.447000
C	0.706000	27.631000	13.006000
C	-0.666000	26.577000	11.287000
C	0.253000	25.085000	13.066000
C	-0.855000	27.816000	10.717000
C	-1.624000	28.094000	9.618000
C	-0.254000	28.957000	11.236000
C	-0.543000	30.077000	10.522000
C	0.523000	28.872000	12.371000
C	1.486000	27.636000	14.303000
C	0.614000	27.972000	15.492000
C	0.067000	27.016000	16.359000
C	0.316000	29.342000	15.708000
C	-0.514000	29.711000	16.761000
C	-0.944000	30.969000	17.055000
C	-1.017000	28.757000	17.626000
C	-1.825000	29.296000	18.599000
C	-0.734000	27.419000	17.446000
C	0.195000	25.529000	16.112000
C	-0.985000	24.964000	15.326000
C	-0.945000	24.734000	13.946000
C	-2.172000	24.730000	16.041000
C	-3.273000	24.261000	15.383000
C	-4.500000	24.001000	15.931000
C	-3.234000	23.999000	14.014000
C	-4.424000	23.530000	13.537000
C	-2.083000	24.230000	13.286000
C	-7.534000	36.470000	12.998000
C	-1.479000	29.756000	9.077000
C	-1.865000	31.056000	18.516000
C	-5.555000	23.145000	14.833000
C	-11.025000	28.481000	9.036000
C	-11.564000	29.832000	18.736000
