
     RDKit          3D

  0  0  0  0  0  0  0  0  0  0999 V3000
M  V30 BEGIN CTAB
M  V30 COUNTS 124 148 0 0 0
M  V30 BEGIN ATOM
M  V30 1 F 23.149000 1.543000 19.938000 0
M  V30 2 F 21.831000 0.549000 20.023000 0
M  V30 3 F 22.721000 2.218000 18.484000 0
M  V30 4 F 14.145000 1.229000 22.721000 0
M  V30 5 F 14.614000 1.788000 24.212000 0
M  V30 6 F 15.468000 0.244000 22.528000 0
M  V30 7 F 16.015000 8.179000 17.846000 0
M  V30 8 F 16.925000 9.194000 18.769000 0
M  V30 9 F 17.271000 7.671000 16.905000 0
M  V30 10 F 21.017000 7.810000 25.428000 0
M  V30 11 F 19.773000 7.203000 26.319000 0
M  V30 12 F 20.079000 8.917000 24.634000 0
M  V30 13 F 19.695000 0.259000 18.786000 0
M  V30 14 F 20.659000 2.299000 17.098000 0
M  V30 15 F 17.077000 3.970000 16.956000 0
M  V30 16 F 16.200000 1.003000 18.932000 0
M  V30 17 F 16.680000 1.808000 25.530000 0
M  V30 18 F 17.648000 -0.061000 23.659000 0
M  V30 19 F 20.201000 3.558000 25.995000 0
M  V30 20 F 21.078000 1.020000 23.550000 0
M  V30 21 F 19.349000 9.557000 19.232000 0
M  V30 22 F 19.771000 7.627000 17.175000 0
M  V30 23 F 21.915000 8.528000 21.407000 0
M  V30 24 F 22.828000 5.868000 19.026000 0
M  V30 25 F 17.276000 7.080000 26.021000 0
M  V30 26 F 17.649000 9.223000 24.264000 0
M  V30 27 F 14.336000 5.456000 23.964000 0
M  V30 28 F 15.221000 8.397000 21.902000 0
M  V30 29 F 20.928000 0.843000 18.969000 0
M  V30 30 F 21.407000 1.802000 18.152000 0
M  V30 31 F 15.935000 4.058000 17.661000 0
M  V30 32 F 15.257000 2.785000 17.760000 0
M  V30 33 F 15.494000 2.131000 19.054000 0
M  V30 34 F 17.199000 2.735000 16.451000 0
M  V30 35 F 16.092000 1.857000 16.800000 0
M  V30 36 F 18.438000 2.276000 15.838000 0
M  V30 37 F 16.459000 0.741000 17.636000 0
M  V30 38 F 17.667000 -0.041000 17.321000 0
M  V30 39 F 16.397000 0.477000 23.554000 0
M  V30 40 F 15.929000 1.375000 24.467000 0
M  V30 41 F 21.330000 3.796000 25.314000 0
M  V30 42 F 22.043000 2.564000 24.945000 0
M  V30 43 F 21.763000 2.125000 23.606000 0
M  V30 44 F 20.129000 2.270000 26.308000 0
M  V30 45 F 21.246000 1.494000 25.796000 0
M  V30 46 F 18.904000 1.680000 26.871000 0
M  V30 47 F 20.877000 0.506000 24.810000 0
M  V30 48 F 19.772000 -0.421000 25.069000 0
M  V30 49 F 18.515000 8.043000 17.488000 0
M  V30 50 F 18.300000 8.941000 18.542000 0
M  V30 51 F 22.431000 7.348000 21.750000 0
M  V30 52 F 23.571000 6.967000 20.931000 0
M  V30 53 F 23.365000 5.688000 20.235000 0
M  V30 54 F 22.604000 9.016000 20.319000 0
M  V30 55 F 23.505000 8.034000 19.766000 0
M  V30 56 F 21.839000 9.932000 19.412000 0
M  V30 57 F 22.873000 7.217000 18.711000 0
M  V30 58 F 22.295000 7.755000 17.529000 0
M  V30 59 F 18.507000 7.612000 25.723000 0
M  V30 60 F 18.704000 8.612000 24.857000 0
M  V30 61 F 13.811000 5.366000 22.727000 0
M  V30 62 F 13.559000 6.694000 22.161000 0
M  V30 63 F 14.200000 6.723000 24.435000 0
M  V30 64 F 14.772000 7.156000 25.682000 0
M  V30 65 F 13.582000 7.639000 23.456000 0
M  V30 66 F 14.737000 7.232000 21.422000 0
M  V30 67 F 14.463000 8.723000 23.016000 0
M  V30 68 F 24.814000 6.836000 21.789000 0
M  V30 69 F 26.111000 6.799000 21.266000 0
M  V30 70 F 24.718000 6.581000 23.175000 0
M  V30 71 F 10.065000 6.002000 20.758000 0
M  V30 72 F 9.998000 6.807000 19.740000 0
M  V30 73 F 11.213000 5.947000 21.576000 0
M  V30 74 F 25.317000 3.252000 26.777000 0
M  V30 75 F 23.992000 3.241000 26.415000 0
M  V30 76 F 26.263000 2.802000 25.826000 0
M  V30 77 F 27.154000 9.845000 18.373000 0
M  V30 78 F 25.859000 2.334000 24.645000 0
M  V30 79 F 9.617000 8.891000 24.574000 0
M  V30 80 F 14.119000 0.721000 13.153000 0
M  V30 81 F 23.512000 2.715000 25.200000 0
M  V30 82 F 24.506000 2.256000 24.339000 0
M  V30 83 F 20.651000 9.234000 18.765000 0
M  V30 84 F 20.821000 8.258000 17.777000 0
M  V30 85 F 27.202000 6.554000 22.138000 0
M  V30 86 F 12.324000 6.720000 21.289000 0
M  V30 87 F 16.389000 8.851000 24.645000 0
M  V30 88 F 26.481000 10.394000 19.423000 0
M  V30 89 F 26.670000 8.688000 17.754000 0
M  V30 90 F 18.388000 0.235000 24.799000 0
M  V30 91 F 17.967000 1.180000 25.719000 0
M  V30 92 F 12.222000 8.115000 23.891000 0
M  V30 93 F 11.708000 9.260000 23.415000 0
M  V30 94 F 11.468000 7.362000 24.782000 0
M  V30 95 F 16.204000 7.746000 25.513000 0
M  V30 96 F 19.404000 1.680000 16.836000 0
M  V30 97 F 18.962000 0.639000 17.676000 0
M  V30 98 F 13.746000 2.941000 17.567000 0
M  V30 99 F 13.160000 4.145000 17.398000 0
M  V30 100 F 12.989000 1.796000 17.449000 0
M  V30 101 F 24.789000 8.685000 19.258000 0
M  V30 102 F 25.464000 8.156000 18.219000 0
M  V30 103 F 25.260000 9.818000 19.849000 0
M  V30 104 F 22.966000 -0.183000 26.634000 0
M  V30 105 F 23.791000 -0.695000 27.641000 0
M  V30 106 F 22.054000 0.840000 26.936000 0
M  V30 107 F 15.364000 1.416000 15.499000 0
M  V30 108 F 12.245000 7.560000 20.201000 0
M  V30 109 F 23.701000 -0.227000 28.909000 0
M  V30 110 F 22.043000 1.360000 28.204000 0
M  V30 111 F 11.082000 7.627000 19.434000 0
M  V30 112 F 10.200000 7.755000 25.138000 0
M  V30 113 F 22.858000 0.834000 29.196000 0
M  V30 114 F 25.814000 6.287000 23.964000 0
M  V30 115 F 11.004000 3.113000 17.179000 0
M  V30 116 F 11.717000 4.249000 17.216000 0
M  V30 117 F 11.596000 1.907000 17.222000 0
M  V30 118 F 10.373000 9.659000 23.696000 0
M  V30 119 F 27.102000 6.302000 23.415000 0
M  V30 120 F 15.020000 0.125000 15.300000 0
M  V30 121 F 14.403000 -0.241000 14.106000 0
M  V30 122 F 14.433000 2.046000 13.365000 0
M  V30 123 F 15.094000 2.357000 14.567000 0
M  V30 124 F 15.109000 9.688000 23.867000 0
M  V30 END ATOM
M  V30 BEGIN BOND
M  V30 1 1 1 3
M  V30 2 1 1 2
M  V30 3 1 2 29
M  V30 4 1 3 30
M  V30 5 1 4 6
M  V30 6 1 4 5
M  V30 7 1 5 40
M  V30 8 1 6 39
M  V30 9 1 7 9
M  V30 10 1 7 8
M  V30 11 1 8 50
M  V30 12 1 9 49
M  V30 13 1 10 12
M  V30 14 1 10 11
M  V30 15 1 11 59
M  V30 16 1 12 60
M  V30 17 1 13 97
M  V30 18 1 13 29
M  V30 19 1 14 96
M  V30 20 1 14 30
M  V30 21 1 15 34
M  V30 22 1 15 31
M  V30 23 1 16 37
M  V30 24 1 16 33
M  V30 25 1 17 40
M  V30 26 1 17 91
M  V30 27 1 18 39
M  V30 28 1 18 90
M  V30 29 1 19 41
M  V30 30 1 19 44
M  V30 31 1 20 43
M  V30 32 1 20 47
M  V30 33 1 21 50
M  V30 34 1 21 83
M  V30 35 1 22 49
M  V30 36 1 22 84
M  V30 37 1 23 54
M  V30 38 1 23 51
M  V30 39 1 24 57
M  V30 40 1 24 53
M  V30 41 1 25 95
M  V30 42 1 25 59
M  V30 43 1 26 87
M  V30 44 1 26 60
M  V30 45 1 27 61
M  V30 46 1 27 63
M  V30 47 1 28 66
M  V30 48 1 28 67
M  V30 49 1 29 30
M  V30 50 1 31 32
M  V30 51 1 32 35
M  V30 52 1 32 98
M  V30 53 1 32 33
M  V30 54 1 34 36
M  V30 55 1 34 35
M  V30 56 1 35 107
M  V30 57 1 35 37
M  V30 58 1 36 96
M  V30 59 1 37 38
M  V30 60 1 38 97
M  V30 61 1 39 40
M  V30 62 1 41 42
M  V30 63 1 42 43
M  V30 64 1 42 81
M  V30 65 1 42 45
M  V30 66 1 44 45
M  V30 67 1 44 46
M  V30 68 1 45 47
M  V30 69 1 45 106
M  V30 70 1 46 91
M  V30 71 1 47 48
M  V30 72 1 48 90
M  V30 73 1 49 50
M  V30 74 1 51 52
M  V30 75 1 52 55
M  V30 76 1 52 53
M  V30 77 1 52 68
M  V30 78 1 54 56
M  V30 79 1 54 55
M  V30 80 1 55 57
M  V30 81 1 55 101
M  V30 82 1 56 83
M  V30 83 1 57 58
M  V30 84 1 58 84
M  V30 85 1 59 60
M  V30 86 1 61 62
M  V30 87 1 62 86
M  V30 88 1 62 66
M  V30 89 1 62 65
M  V30 90 1 63 65
M  V30 91 1 63 64
M  V30 92 1 64 95
M  V30 93 1 65 67
M  V30 94 1 65 92
M  V30 95 1 67 124
M  V30 96 1 68 69
M  V30 97 1 68 70
M  V30 98 1 69 85
M  V30 99 1 70 114
M  V30 100 1 71 72
M  V30 101 1 71 73
M  V30 102 1 72 111
M  V30 103 1 73 86
M  V30 104 1 74 76
M  V30 105 1 74 75
M  V30 106 1 75 81
M  V30 107 1 76 78
M  V30 108 1 77 89
M  V30 109 1 77 88
M  V30 110 1 78 82
M  V30 111 1 79 118
M  V30 112 1 79 112
M  V30 113 1 80 122
M  V30 114 1 80 121
M  V30 115 1 81 82
M  V30 116 1 83 84
M  V30 117 1 85 119
M  V30 118 1 86 108
M  V30 119 1 87 124
M  V30 120 1 87 95
M  V30 121 1 88 103
M  V30 122 1 89 102
M  V30 123 1 90 91
M  V30 124 1 92 93
M  V30 125 1 92 94
M  V30 126 1 93 118
M  V30 127 1 94 112
M  V30 128 1 96 97
M  V30 129 1 98 99
M  V30 130 1 98 100
M  V30 131 1 99 116
M  V30 132 1 100 117
M  V30 133 1 101 102
M  V30 134 1 101 103
M  V30 135 1 104 106
M  V30 136 1 104 105
M  V30 137 1 105 109
M  V30 138 1 106 110
M  V30 139 1 107 123
M  V30 140 1 107 120
M  V30 141 1 108 111
M  V30 142 1 109 113
M  V30 143 1 110 113
M  V30 144 1 114 119
M  V30 145 1 115 116
M  V30 146 1 115 117
M  V30 147 1 120 121
M  V30 148 1 122 123
M  V30 END BOND
M  V30 END CTAB
M  END
