
     RDKit          3D

  0  0  0  0  0  0  0  0  0  0999 V3000
M  V30 BEGIN CTAB
M  V30 COUNTS 82 96 0 0 0
M  V30 BEGIN ATOM
M  V30 1 F 5.277000 5.269000 2.065000 0
M  V30 2 F 4.705000 7.226000 2.063000 0
M  V30 3 F 4.352000 5.079000 0.269000 0
M  V30 4 F 5.815000 3.311000 2.131000 0
M  V30 5 F 6.079000 5.473000 3.916000 0
M  V30 6 F 3.415000 7.470000 2.336000 0
M  V30 7 F 5.522000 8.228000 1.718000 0
M  V30 8 F 3.200000 4.351000 0.225000 0
M  V30 9 F 4.792000 5.688000 -0.856000 0
M  V30 10 F 5.362000 2.555000 3.174000 0
M  V30 11 F 6.734000 2.830000 1.306000 0
M  V30 12 F 5.281000 5.821000 4.935000 0
M  V30 13 F 7.412000 5.290000 4.135000 0
M  V30 14 F 2.887000 8.740000 2.192000 0
M  V30 15 F 5.042000 9.535000 1.580000 0
M  V30 16 F 2.495000 4.250000 -0.974000 0
M  V30 17 F 4.109000 5.624000 -2.039000 0
M  V30 18 F 5.880000 1.291000 3.386000 0
M  V30 19 F 7.274000 1.547000 1.480000 0
M  V30 20 F 5.787000 5.989000 6.193000 0
M  V30 21 F 7.936000 5.421000 5.407000 0
M  V30 22 F 3.718000 9.797000 1.819000 0
M  V30 23 F 1.576000 9.030000 2.441000 0
M  V30 24 F 2.948000 4.900000 -2.113000 0
M  V30 25 F 1.301000 3.573000 -1.086000 0
M  V30 26 F 6.854000 0.766000 2.543000 0
M  V30 27 F 5.448000 0.458000 4.403000 0
M  V30 28 F 7.151000 5.781000 6.446000 0
M  V30 29 F 4.998000 6.306000 7.289000 0
M  V30 30 F 0.606000 8.072000 2.154000 0
M  V30 31 F 0.930000 2.619000 -0.118000 0
M  V30 32 F 4.677000 0.990000 5.428000 0
M  V30 33 F 3.687000 6.699000 7.117000 0
M  V30 34 F 0.713000 7.171000 1.107000 0
M  V30 35 F -0.561000 8.140000 2.928000 0
M  V30 36 F 1.831000 1.660000 0.365000 0
M  V30 37 F -0.386000 2.587000 0.263000 0
M  V30 38 F 3.392000 0.514000 5.602000 0
M  V30 39 F 5.219000 1.890000 6.333000 0
M  V30 40 F 3.337000 7.790000 6.292000 0
M  V30 41 F 2.728000 6.057000 7.895000 0
M  V30 42 F -0.317000 6.294000 0.841000 0
M  V30 43 F -1.628000 7.263000 2.624000 0
M  V30 44 F 1.388000 0.693000 1.258000 0
M  V30 45 F -0.853000 1.608000 1.127000 0
M  V30 46 F 2.638000 0.933000 6.668000 0
M  V30 47 F 4.442000 2.338000 7.394000 0
M  V30 48 F 2.024000 8.201000 6.236000 0
M  V30 49 F 1.427000 6.506000 7.846000 0
M  V30 50 F -1.470000 6.363000 1.603000 0
M  V30 51 F 0.043000 0.691000 1.626000 0
M  V30 52 F 3.144000 1.860000 7.562000 0
M  V30 53 F 1.083000 7.534000 7.008000 0
M  V30 54 F -2.521000 5.482000 1.242000 0
M  V30 55 F -0.367000 -0.384000 2.423000 0
M  V30 56 F 2.467000 2.312000 8.676000 0
M  V30 57 F -0.239000 8.058000 6.933000 0
M  V30 58 F -3.090000 4.715000 2.203000 0
M  V30 59 F -1.103000 -0.152000 3.534000 0
M  V30 60 F 1.107000 2.345000 8.722000 0
M  V30 61 F -1.279000 7.161000 7.102000 0
M  V30 62 F -2.474000 4.404000 3.424000 0
M  V30 63 F -4.319000 4.144000 1.919000 0
M  V30 64 F -1.146000 1.084000 4.196000 0
M  V30 65 F -1.819000 -1.214000 4.054000 0
M  V30 66 F 0.330000 2.682000 7.605000 0
M  V30 67 F 0.474000 2.042000 9.890000 0
M  V30 68 F -1.247000 5.902000 6.514000 0
M  V30 69 F -2.360000 7.533000 7.905000 0
M  V30 70 F -3.073000 3.620000 4.309000 0
M  V30 71 F -4.904000 3.332000 2.875000 0
M  V30 72 F -1.868000 1.256000 5.292000 0
M  V30 73 F -2.556000 -1.010000 5.198000 0
M  V30 74 F -1.012000 2.664000 7.660000 0
M  V30 75 F -0.915000 2.016000 9.921000 0
M  V30 76 F -2.253000 5.038000 6.696000 0
M  V30 77 F -3.392000 6.661000 8.032000 0
M  V30 78 F -2.065000 3.142000 6.005000 0
M  V30 79 F -4.282000 3.099000 4.045000 0
M  V30 80 F -2.573000 0.237000 5.812000 0
M  V30 81 F -1.621000 2.329000 8.804000 0
M  V30 82 F -3.314000 5.381000 7.432000 0
M  V30 END ATOM
M  V30 BEGIN BOND
M  V30 1 1 1 3
M  V30 2 1 1 2
M  V30 3 1 1 4
M  V30 4 1 1 5
M  V30 5 1 2 7
M  V30 6 1 2 6
M  V30 7 1 3 9
M  V30 8 1 3 8
M  V30 9 1 4 11
M  V30 10 1 4 10
M  V30 11 1 5 13
M  V30 12 1 5 12
M  V30 13 1 6 14
M  V30 14 1 7 15
M  V30 15 1 8 16
M  V30 16 1 9 17
M  V30 17 1 10 18
M  V30 18 1 11 19
M  V30 19 1 12 20
M  V30 20 1 13 21
M  V30 21 1 14 22
M  V30 22 1 14 23
M  V30 23 1 15 22
M  V30 24 1 16 24
M  V30 25 1 16 25
M  V30 26 1 17 24
M  V30 27 1 18 26
M  V30 28 1 18 27
M  V30 29 1 19 26
M  V30 30 1 20 28
M  V30 31 1 20 29
M  V30 32 1 21 28
M  V30 33 1 23 30
M  V30 34 1 25 31
M  V30 35 1 27 32
M  V30 36 1 29 33
M  V30 37 1 30 34
M  V30 38 1 30 35
M  V30 39 1 31 37
M  V30 40 1 31 36
M  V30 41 1 32 38
M  V30 42 1 32 39
M  V30 43 1 33 40
M  V30 44 1 33 41
M  V30 45 1 34 42
M  V30 46 1 35 43
M  V30 47 1 36 44
M  V30 48 1 37 45
M  V30 49 1 38 46
M  V30 50 1 39 47
M  V30 51 1 40 48
M  V30 52 1 41 49
M  V30 53 1 42 50
M  V30 54 1 43 50
M  V30 55 1 44 51
M  V30 56 1 45 51
M  V30 57 1 46 52
M  V30 58 1 47 52
M  V30 59 1 48 53
M  V30 60 1 49 53
M  V30 61 1 50 54
M  V30 62 1 51 55
M  V30 63 1 52 56
M  V30 64 1 53 57
M  V30 65 1 54 58
M  V30 66 1 55 59
M  V30 67 1 56 60
M  V30 68 1 57 61
M  V30 69 1 58 63
M  V30 70 1 58 62
M  V30 71 1 59 65
M  V30 72 1 59 64
M  V30 73 1 60 66
M  V30 74 1 60 67
M  V30 75 1 61 68
M  V30 76 1 61 69
M  V30 77 1 62 70
M  V30 78 1 63 71
M  V30 79 1 64 72
M  V30 80 1 65 73
M  V30 81 1 66 74
M  V30 82 1 67 75
M  V30 83 1 68 76
M  V30 84 1 69 77
M  V30 85 1 70 79
M  V30 86 1 71 79
M  V30 87 1 72 80
M  V30 88 1 72 78
M  V30 89 1 73 80
M  V30 90 1 74 78
M  V30 91 1 74 81
M  V30 92 1 75 81
M  V30 93 1 76 78
M  V30 94 1 76 82
M  V30 95 1 77 82
M  V30 96 1 78 70
M  V30 END BOND
M  V30 END CTAB
M  END
