	82

C	5.277000	5.269000	2.065000
C	4.705000	7.226000	2.063000
C	4.352000	5.079000	0.269000
C	5.815000	3.311000	2.131000
C	6.079000	5.473000	3.916000
C	3.415000	7.470000	2.336000
C	5.522000	8.228000	1.718000
C	3.200000	4.351000	0.225000
C	4.792000	5.688000	-0.856000
C	5.362000	2.555000	3.174000
C	6.734000	2.830000	1.306000
C	5.281000	5.821000	4.935000
C	7.412000	5.290000	4.135000
C	2.887000	8.740000	2.192000
C	5.042000	9.535000	1.580000
C	2.495000	4.250000	-0.974000
C	4.109000	5.624000	-2.039000
C	5.880000	1.291000	3.386000
C	7.274000	1.547000	1.480000
C	5.787000	5.989000	6.193000
C	7.936000	5.421000	5.407000
C	3.718000	9.797000	1.819000
C	1.576000	9.030000	2.441000
C	2.948000	4.900000	-2.113000
C	1.301000	3.573000	-1.086000
C	6.854000	0.766000	2.543000
C	5.448000	0.458000	4.403000
C	7.151000	5.781000	6.446000
C	4.998000	6.306000	7.289000
C	0.606000	8.072000	2.154000
C	0.930000	2.619000	-0.118000
C	4.677000	0.990000	5.428000
C	3.687000	6.699000	7.117000
C	0.713000	7.171000	1.107000
C	-0.561000	8.140000	2.928000
C	1.831000	1.660000	0.365000
C	-0.386000	2.587000	0.263000
C	3.392000	0.514000	5.602000
C	5.219000	1.890000	6.333000
C	3.337000	7.790000	6.292000
C	2.728000	6.057000	7.895000
C	-0.317000	6.294000	0.841000
C	-1.628000	7.263000	2.624000
C	1.388000	0.693000	1.258000
C	-0.853000	1.608000	1.127000
C	2.638000	0.933000	6.668000
C	4.442000	2.338000	7.394000
C	2.024000	8.201000	6.236000
C	1.427000	6.506000	7.846000
C	-1.470000	6.363000	1.603000
C	0.043000	0.691000	1.626000
C	3.144000	1.860000	7.562000
C	1.083000	7.534000	7.008000
C	-2.521000	5.482000	1.242000
C	-0.367000	-0.384000	2.423000
C	2.467000	2.312000	8.676000
C	-0.239000	8.058000	6.933000
C	-3.090000	4.715000	2.203000
C	-1.103000	-0.152000	3.534000
C	1.107000	2.345000	8.722000
C	-1.279000	7.161000	7.102000
C	-2.474000	4.404000	3.424000
C	-4.319000	4.144000	1.919000
C	-1.146000	1.084000	4.196000
C	-1.819000	-1.214000	4.054000
C	0.330000	2.682000	7.605000
C	0.474000	2.042000	9.890000
C	-1.247000	5.902000	6.514000
C	-2.360000	7.533000	7.905000
C	-3.073000	3.620000	4.309000
C	-4.904000	3.332000	2.875000
C	-1.868000	1.256000	5.292000
C	-2.556000	-1.010000	5.198000
C	-1.012000	2.664000	7.660000
C	-0.915000	2.016000	9.921000
C	-2.253000	5.038000	6.696000
C	-3.392000	6.661000	8.032000
C	-2.065000	3.142000	6.005000
C	-4.282000	3.099000	4.045000
C	-2.573000	0.237000	5.812000
C	-1.621000	2.329000	8.804000
C	-3.314000	5.381000	7.432000
