
     RDKit          3D

  0  0  0  0  0  0  0  0  0  0999 V3000
M  V30 BEGIN CTAB
M  V30 COUNTS 459 789 0 0 0
M  V30 BEGIN ATOM
M  V30 1 H 8.729600 6.206989 0.135367 0
M  V30 2 N 3.843894 5.976652 1.511157 0
M  V30 3 N 7.010226 6.628738 2.343378 0
M  V30 4 N 3.799027 3.749586 2.233476 0
M  V30 5 H 8.729600 6.069966 0.575682 0
M  V30 6 N 2.253431 4.301563 3.702763 0
M  V30 7 H 8.729600 6.278832 0.573563 0
M  V30 8 H 8.729600 6.227795 0.138352 0
M  V30 9 N 6.363084 6.714098 2.614363 0
M  V30 10 N 3.393645 5.561794 1.786939 0
M  V30 11 N 4.456354 3.902616 1.415134 0
M  V30 12 N 5.261037 6.390069 0.737546 0
M  V30 13 N 5.762134 6.536468 0.675344 0
M  V30 14 N 4.483969 4.365153 3.687424 0
M  V30 15 N 4.846472 6.271538 3.320255 0
M  V30 16 N 5.725223 4.228074 0.727193 0
M  V30 17 N 6.417629 4.770534 0.313194 0
M  V30 18 N 4.257136 6.099319 3.354200 0
M  V30 19 N 2.239964 4.351087 3.693256 0
M  V30 20 N 6.662954 4.552996 2.722612 0
M  V30 21 N 7.230855 4.689247 2.135497 0
M  V30 22 N 3.787770 6.888373 0.431083 0
M  V30 23 N 3.861478 7.831721 -0.063764 0
M  V30 24 N 5.874884 7.489313 3.709742 0
M  V30 25 N 4.901931 8.477439 4.275537 0
M  V30 26 N 4.865327 8.265549 4.291955 0
M  V30 27 N 5.021470 8.396979 4.324936 0
M  V30 28 N 2.749575 6.693835 -0.080276 0
M  V30 29 N 4.919855 3.229787 0.412093 0
M  V30 30 N 5.238573 2.823010 -1.202208 0
M  V30 31 N 2.788659 6.608918 0.301431 0
M  V30 32 N 2.873382 6.854877 0.055324 0
M  V30 33 N 4.447898 1.507766 0.890353 0
M  V30 34 N 6.447285 3.927230 3.512440 0
M  V30 35 N 7.561797 3.125866 3.415645 0
M  V30 36 N 3.939700 2.331516 1.266711 0
M  V30 37 N 4.389959 2.062685 0.502277 0
M  V30 38 N 6.144709 3.602304 5.082630 0
M  V30 39 N 6.900835 8.156073 4.285479 0
M  V30 40 N 6.135789 3.691158 5.211175 0
M  V30 41 N 5.954623 3.648715 5.083795 0
M  V30 42 N 1.348841 4.629128 3.948579 0
M  V30 43 N 4.686108 8.966331 4.231736 0
M  V30 44 N 3.725368 8.058824 -0.249265 0
M  V30 45 N 1.469085 4.340814 3.786947 0
M  V30 46 N 1.290449 4.941994 4.000840 0
M  V30 47 N 1.931563 7.711808 3.267535 0
M  V30 48 N 4.698414 8.964810 4.232101 0
M  V30 49 N 2.120106 7.880478 4.063786 0
M  V30 50 N 1.851083 7.565830 4.026810 0
M  V30 51 N 1.780648 5.058239 4.471701 0
M  V30 52 N 2.978487 7.732437 -0.389251 0
M  V30 53 N 4.561674 8.843792 3.607261 0
M  V30 54 N 4.720368 8.948164 4.233881 0
M  V30 55 N 1.484026 4.392598 3.708915 0
M  V30 56 N 1.371211 5.397801 4.262022 0
M  V30 57 N 2.829235 8.197243 4.257335 0
M  V30 58 N 1.609372 4.308420 4.118930 0
M  V30 59 N 1.378381 5.388127 4.266393 0
M  V30 60 N 1.559404 4.258739 4.044528 0
M  V30 61 N 1.876137 5.183090 4.482357 0
M  V30 62 N 1.432650 4.420756 3.815016 0
M  V30 63 N 1.691754 4.891319 4.429617 0
M  V30 64 N 1.586625 4.189917 3.997926 0
M  V30 65 N 1.637380 4.175297 4.014358 0
M  V30 66 H 8.729600 9.728120 -2.324300 0
M  V30 67 N 6.624732 9.751725 5.220544 0
M  V30 68 N 3.726104 8.104846 -0.294888 0
M  V30 69 H 8.729600 8.723411 -2.324300 0
M  V30 70 H 7.194884 9.164491 -2.324300 0
M  V30 71 H 8.665848 10.486667 5.081652 0
M  V30 72 N 7.105303 8.530966 4.581296 0
M  V30 73 H 8.729600 9.060302 3.954598 0
M  V30 74 H 8.729600 10.507336 5.055661 0
M  V30 75 N 7.284751 10.003282 5.307321 0
M  V30 76 N 7.201778 8.628455 4.624360 0
M  V30 77 N 7.210759 8.634083 4.624179 0
M  V30 78 N 6.110497 9.069279 4.909543 0
M  V30 79 N 1.087840 4.651401 0.630604 0
M  V30 80 N 4.812708 1.753052 -1.315433 0
M  V30 81 N 5.226897 2.497739 -1.621703 0
M  V30 82 N 1.431770 3.722548 3.480363 0
M  V30 83 N 2.571570 6.639759 -0.409308 0
M  V30 84 N 1.468534 5.432311 0.340978 0
M  V30 85 N 1.577761 4.139342 3.983041 0
M  V30 86 N 1.189510 3.990128 3.296882 0
M  V30 87 N 1.910279 3.477669 3.452570 0
M  V30 88 N 1.697666 3.658023 3.718283 0
M  V30 89 N 1.256134 3.879044 3.416891 0
M  V30 90 N 1.343604 3.764163 3.418107 0
M  V30 91 N 1.651597 4.052016 3.992007 0
M  V30 92 N 1.674248 4.118396 4.015828 0
M  V30 93 H 8.729600 4.346317 -2.324300 0
M  V30 94 H 5.630890 9.266128 -2.324300 0
M  V30 95 N 2.931326 8.011170 -0.697825 0
M  V30 96 N 3.191968 8.342016 -0.866204 0
M  V30 97 H 6.249791 2.661296 -2.324300 0
M  V30 98 N 2.569905 6.642897 -0.415137 0
M  V30 99 H 5.273539 2.433628 -1.748349 0
M  V30 100 N 3.709546 8.125694 -0.326112 0
M  V30 101 N 3.664322 8.654005 -1.155795 0
M  V30 102 N 3.918833 0.965178 1.728282 0
M  V30 103 N 3.312060 0.932864 3.018202 0
M  V30 104 N 3.613384 1.124352 3.423653 0
M  V30 105 N 4.546251 1.087295 0.900690 0
M  V30 106 N 2.909983 3.564395 4.904060 0
M  V30 107 N 4.545824 1.083608 0.902402 0
M  V30 108 N 7.824000 2.874660 3.571245 0
M  V30 109 N 7.196633 2.852566 4.972421 0
M  V30 110 N 4.799370 1.221727 1.106390 0
M  V30 111 N 1.778830 3.373850 3.826104 0
M  V30 112 N 3.108375 3.647710 4.954741 0
M  V30 113 N 1.744208 3.695162 4.068111 0
M  V30 114 N 3.022329 3.554278 4.931178 0
M  V30 115 N 2.919583 3.568006 4.909484 0
M  V30 116 N 2.882334 3.668109 4.906511 0
M  V30 117 N 2.704448 3.708712 4.823026 0
M  V30 118 N 2.820867 3.604354 4.865343 0
M  V30 119 N 1.731854 3.765964 4.091348 0
M  V30 120 N 1.972979 3.940130 4.360186 0
M  V30 121 N 7.878305 2.852720 3.577308 0
M  V30 122 H 8.729600 2.410646 -2.324300 0
M  V30 123 H 8.729600 3.148473 3.116110 0
M  V30 124 H 5.251639 1.443486 -2.324300 0
M  V30 125 H 5.203554 0.926574 -2.324300 0
M  V30 126 H 5.274408 2.429233 -1.752702 0
M  V30 127 H 5.566470 2.019307 -2.324300 0
M  V30 128 H 5.151523 1.144617 -2.324300 0
M  V30 129 N 3.977101 4.448064 6.384792 0
M  V30 130 N 6.268398 3.809035 5.548513 0
M  V30 131 N 6.273326 3.794813 5.508738 0
M  V30 132 N 2.233080 4.102651 5.033562 0
M  V30 133 N 3.353112 4.314495 5.982699 0
M  V30 134 N 4.866168 4.021637 6.084134 0
M  V30 135 N 1.844418 5.093315 4.567180 0
M  V30 136 N 2.794905 4.120000 5.516752 0
M  V30 137 N 1.717740 4.509791 4.556620 0
M  V30 138 N 2.195424 3.984650 4.825008 0
M  V30 139 N 1.838328 5.085749 4.565776 0
M  V30 140 N 1.794531 4.952014 4.587594 0
M  V30 141 N 1.714973 4.828131 4.528853 0
M  V30 142 H 8.729600 2.372051 4.643404 0
M  V30 143 N 7.568389 2.688276 5.089197 0
M  V30 144 H 8.591971 2.368963 4.700418 0
M  V30 145 N 7.881684 2.851006 3.579549 0
M  V30 146 H 8.729600 2.674233 3.784690 0
M  V30 147 N 7.130553 8.249528 4.696824 0
M  V30 148 N 2.755548 8.579043 -1.166814 0
M  V30 149 H 2.808801 10.560914 4.568014 0
M  V30 150 N 1.645091 9.676970 -0.529499 0
M  V30 151 N 1.682877 8.701008 0.806111 0
M  V30 152 N 3.412071 10.110895 4.636773 0
M  V30 153 H 3.667220 9.734577 -2.324300 0
M  V30 154 H 8.729600 10.776700 -2.324300 0
M  V30 155 H 5.211605 10.776700 5.088795 0
M  V30 156 H 8.729600 10.776700 5.277774 0
M  V30 157 H 7.291125 10.627181 5.785881 0
M  V30 158 H 8.729600 10.554467 5.106327 0
M  V30 159 H 7.366546 10.776700 5.868543 0
M  V30 160 H 3.873440 10.776700 -2.324300 0
M  V30 161 N 1.080725 4.652056 0.618842 0
M  V30 162 N 2.560820 6.645120 -0.426037 0
M  V30 163 N 1.117183 6.309788 -1.191563 0
M  V30 164 H 3.038345 1.686374 -2.324300 0
M  V30 165 N 0.564144 5.934459 -1.625707 0
M  V30 166 H 2.144673 9.591918 -2.324300 0
M  V30 167 H 1.595699 8.386801 -2.324300 0
M  V30 168 H 4.165175 -1.224442 1.823595 0
M  V30 169 N 4.315039 0.207852 1.104750 0
M  V30 170 N 3.379889 0.585623 2.972602 0
M  V30 171 H 8.729600 2.158493 4.990509 0
M  V30 172 N 4.546415 0.983021 0.889324 0
M  V30 173 H 8.729600 1.904823 5.508895 0
M  V30 174 H 8.729600 1.088455 5.656903 0
M  V30 175 H 8.729600 1.105988 5.671264 0
M  V30 176 N 3.659750 1.002607 3.433023 0
M  V30 177 H 5.156594 -1.335400 -2.324300 0
M  V30 178 H 8.729600 -1.335400 -2.324300 0
M  V30 179 H 8.729600 -1.335400 0.838761 0
M  V30 180 H 4.824696 -1.335400 -0.704099 0
M  V30 181 N 5.918873 4.242759 7.935262 0
M  V30 182 N 6.038907 3.890356 6.998396 0
M  V30 183 N 6.286189 3.808251 5.597723 0
M  V30 184 N 4.043323 4.468110 6.519892 0
M  V30 185 N 6.994393 10.156836 6.998969 0
M  V30 186 H 8.729600 2.528533 7.887209 0
M  V30 187 H 0.938937 10.776700 -1.605202 0
M  V30 188 H 2.747328 10.776700 4.622408 0
M  V30 189 H 1.109319 10.776700 -2.324300 0
M  V30 190 H 3.607033 10.776700 4.952121 0
M  V30 191 H 0.206028 10.776700 -1.131063 0
M  V30 192 N 1.159480 8.200128 4.247014 0
M  V30 193 H -0.553892 10.776700 1.437308 0
M  V30 194 H 0.239427 10.776700 4.918466 0
M  V30 195 H 0.000133 6.093819 -2.324300 0
M  V30 196 H 0.532307 7.340267 -2.324300 0
M  V30 197 N 0.246304 4.493222 0.142502 0
M  V30 198 H -0.413243 2.246710 -2.324300 0
M  V30 199 H 1.864144 1.361060 -2.324300 0
M  V30 200 H -1.922593 4.829137 -2.324300 0
M  V30 201 H -1.742475 4.874569 -2.065847 0
M  V30 202 H -1.836364 5.001775 -2.324300 0
M  V30 203 H 4.170101 -1.335400 1.808945 0
M  V30 204 H 8.729600 -1.335400 5.255534 0
M  V30 205 H 4.685332 -1.335400 -0.382692 0
M  V30 206 H 3.302281 -1.335400 2.929246 0
M  V30 207 H 8.729600 -1.335400 7.482698 0
M  V30 208 H 4.806979 -1.335400 5.509446 0
M  V30 209 H 7.186966 -1.335400 7.299660 0
M  V30 210 H 7.064893 4.160976 10.913100 0
M  V30 211 H 8.729600 10.776700 10.913100 0
M  V30 212 H 8.678109 10.776700 10.913100 0
M  V30 213 H 8.729600 2.851162 10.913100 0
M  V30 214 H 7.304509 10.776700 7.404962 0
M  V30 215 H 8.729600 2.479824 9.564454 0
M  V30 216 H 5.402636 10.776700 10.573479 0
M  V30 217 H 5.358078 10.776700 10.913100 0
M  V30 218 H 4.637050 8.371436 10.913100 0
M  V30 219 N 3.996406 4.485179 6.916501 0
M  V30 220 H 5.063554 4.483222 10.913100 0
M  V30 221 H 5.011974 4.443084 10.703394 0
M  V30 222 H 5.148275 4.429535 10.913100 0
M  V30 223 N 1.089319 5.886345 4.344507 0
M  V30 224 H -2.434273 10.776700 -1.400893 0
M  V30 225 N 1.355836 5.420235 4.266654 0
M  V30 226 N 1.078124 5.795861 4.335578 0
M  V30 227 N -1.142983 8.450527 0.732870 0
M  V30 228 H -2.433333 10.776700 -1.396421 0
M  V30 229 N 0.857154 5.093183 3.826453 0
M  V30 230 N 0.735410 5.182953 3.790473 0
M  V30 231 N 0.757858 5.203661 3.904723 0
M  V30 232 N 0.697335 5.222319 3.811830 0
M  V30 233 N 0.983360 5.014976 3.906652 0
M  V30 234 H -0.337313 -0.707254 -2.324300 0
M  V30 235 N 1.283721 3.677935 3.358608 0
M  V30 236 N 0.146354 0.651906 -0.527923 0
M  V30 237 N 0.764901 2.320590 1.631408 0
M  V30 238 H -0.341598 -0.699697 -2.324300 0
M  V30 239 N 1.165513 3.987682 3.275052 0
M  V30 240 N 0.155873 0.681863 -0.489965 0
M  V30 241 N 1.222900 3.630505 3.312464 0
M  V30 242 N 1.179045 3.632106 3.291929 0
M  V30 243 N 1.198693 3.846988 3.377843 0
M  V30 244 H 5.209734 -1.335400 8.483815 0
M  V30 245 N 4.532354 0.114470 7.447635 0
M  V30 246 H 3.341972 10.372443 10.913100 0
M  V30 247 H 4.602101 10.776700 10.913100 0
M  V30 248 H 3.348478 10.296265 10.913100 0
M  V30 249 N 2.587334 7.857848 7.907889 0
M  V30 250 N 1.957591 5.526348 5.091821 0
M  V30 251 H -2.393666 10.776700 -2.324300 0
M  V30 252 H -2.518224 10.776700 -1.530445 0
M  V30 253 H -2.555880 10.776700 -1.696176 0
M  V30 254 H 0.114173 10.776700 5.016345 0
M  V30 255 N 0.039303 7.093918 4.946961 0
M  V30 256 N -3.004157 9.243518 5.030127 0
M  V30 257 H -4.194966 10.776700 4.786682 0
M  V30 258 N 0.284343 7.711118 4.939897 0
M  V30 259 N 0.612346 5.265831 3.811781 0
M  V30 260 N -1.469159 7.431740 4.869226 0
M  V30 261 N -0.617568 7.389587 5.005827 0
M  V30 262 N 0.527158 5.326074 3.936987 0
M  V30 263 N -2.668655 9.808057 5.220250 0
M  V30 264 H -2.891132 10.776700 5.257970 0
M  V30 265 H -0.312706 -0.838735 -2.324300 0
M  V30 266 H -0.335583 -0.796522 -2.324300 0
M  V30 267 H 0.771437 -1.335400 -2.324300 0
M  V30 268 N -0.937744 4.166492 1.782962 0
M  V30 269 N -0.928778 4.172214 1.785595 0
M  V30 270 N -2.703864 3.004415 0.596009 0
M  V30 271 H -4.596374 1.329906 -2.324300 0
M  V30 272 N -2.765927 3.393052 0.083205 0
M  V30 273 N -0.452049 4.203755 2.082369 0
M  V30 274 H -3.742392 3.487074 -2.324300 0
M  V30 275 N -0.913490 4.322893 1.373363 0
M  V30 276 N -1.413631 3.498118 1.852808 0
M  V30 277 N 0.803368 3.653940 3.227678 0
M  V30 278 N 1.021794 3.552930 3.231285 0
M  V30 279 H 2.291847 -1.335400 3.395386 0
M  V30 280 H 5.205735 -1.335400 8.493811 0
M  V30 281 H 0.948426 -1.335400 5.482544 0
M  V30 282 H 1.451511 -1.335400 4.389039 0
M  V30 283 N 1.415784 0.616337 3.879960 0
M  V30 284 N 0.979535 -0.073227 5.008441 0
M  V30 285 N 1.378065 0.504197 3.956238 0
M  V30 286 H 5.220216 -1.335400 8.605386 0
M  V30 287 H 8.371419 -1.335400 10.913100 0
M  V30 288 H 8.729600 -1.335400 10.913100 0
M  V30 289 H 8.729600 -0.714181 10.913100 0
M  V30 290 N 4.532354 0.114470 7.447635 0
M  V30 291 H 3.352795 10.776700 10.913100 0
M  V30 292 N 2.823449 8.824528 8.996819 0
M  V30 293 H 3.263017 10.489891 10.913100 0
M  V30 294 N 1.416212 4.406730 8.249352 0
M  V30 295 H 1.488606 4.848253 10.373030 0
M  V30 296 N 2.008425 4.031088 7.724068 0
M  V30 297 H 1.549149 5.082618 10.913100 0
M  V30 298 N 3.147727 3.972079 7.821855 0
M  V30 299 N 2.214855 3.923016 7.274837 0
M  V30 300 H 2.122447 4.635707 10.661404 0
M  V30 301 H 2.270046 4.677910 10.913100 0
M  V30 302 N 1.597474 4.566040 4.896474 0
M  V30 303 N 1.702893 4.835089 4.562842 0
M  V30 304 H -2.970998 10.776700 -2.324300 0
M  V30 305 H -3.109751 8.458110 -2.324300 0
M  V30 306 H -5.394400 10.776700 -1.807238 0
M  V30 307 H -5.394400 7.398436 4.424215 0
M  V30 308 N -3.560370 7.279283 5.020706 0
M  V30 309 H -5.218003 7.687980 2.059250 0
M  V30 310 H -5.394400 10.776700 4.620428 0
M  V30 311 H -5.184272 10.776700 -1.943016 0
M  V30 312 H -4.838418 7.068545 4.490049 0
M  V30 313 H -5.394400 7.650674 2.897608 0
M  V30 314 H -5.394400 7.866372 1.943336 0
M  V30 315 H -5.394400 9.598643 4.680659 0
M  V30 316 N -3.402072 6.734316 4.814533 0
M  V30 317 N -3.592901 7.518451 5.036718 0
M  V30 318 H -5.394400 7.439578 4.440319 0
M  V30 319 N -3.546071 7.304704 5.028199 0
M  V30 320 N -3.600731 6.793639 4.816456 0
M  V30 321 N -3.524379 6.890779 4.881254 0
M  V30 322 N 1.371069 0.643564 3.837771 0
M  V30 323 H -0.311967 -1.335400 -2.324300 0
M  V30 324 H 0.524542 -1.335400 0.733050 0
M  V30 325 H -5.394400 -1.335400 -2.324300 0
M  V30 326 H -0.887092 -1.335400 -2.324300 0
M  V30 327 H -5.394400 0.239228 -2.324300 0
M  V30 328 H -1.896245 -1.335400 -0.512273 0
M  V30 329 H -3.939342 -1.335400 0.253889 0
M  V30 330 N -2.791340 2.365392 2.259353 0
M  V30 331 N -3.431793 -0.710803 1.023586 0
M  V30 332 H -5.394400 -1.335400 -0.226325 0
M  V30 333 N -2.565771 2.172681 2.653114 0
M  V30 334 H -5.394400 -1.258562 -0.152244 0
M  V30 335 N -4.161524 -0.002249 1.465889 0
M  V30 336 N -2.622773 2.171898 2.613840 0
M  V30 337 H -5.394400 -0.074359 -1.320188 0
M  V30 338 N -2.814299 2.322934 2.294833 0
M  V30 339 N -2.613816 2.136652 2.642376 0
M  V30 340 N -3.225665 1.167638 2.418513 0
M  V30 341 N -2.810539 2.296695 2.329425 0
M  V30 342 N -3.310870 1.094157 2.355933 0
M  V30 343 H 0.410999 -1.335400 6.339870 0
M  V30 344 H -0.057636 -0.944472 8.032305 0
M  V30 345 N 1.950326 0.617339 8.455339 0
M  V30 346 H 2.429317 -1.335400 9.837179 0
M  V30 347 N 0.141197 -0.277119 6.279267 0
M  V30 348 H 3.000415 -1.335400 9.885814 0
M  V30 349 N 1.949151 -0.513334 9.231732 0
M  V30 350 N 4.532354 0.114470 7.447635 0
M  V30 351 H 0.833025 -1.335400 5.620295 0
M  V30 352 H 5.207693 -1.335400 8.636504 0
M  V30 353 N 0.014577 0.062796 6.773703 0
M  V30 354 N -0.064375 -0.578015 7.775365 0
M  V30 355 N 0.234968 0.664594 6.193252 0
M  V30 356 N 0.234765 -0.691529 6.111518 0
M  V30 357 H -0.030518 -1.335400 8.185074 0
M  V30 358 N 0.234161 -0.690082 6.111738 0
M  V30 359 N 0.215132 -0.662524 6.142551 0
M  V30 360 H 0.081129 -1.335400 7.505414 0
M  V30 361 H 5.502353 -1.335400 10.913100 0
M  V30 362 H 5.213855 -0.551989 10.913100 0
M  V30 363 H 3.011835 10.776700 10.913100 0
M  V30 364 H 3.199197 10.512369 10.913100 0
M  V30 365 H 1.280309 10.776700 8.802523 0
M  V30 366 N -0.900581 5.315080 9.681864 0
M  V30 367 N -0.498760 4.912067 8.947771 0
M  V30 368 H -0.768036 5.733096 10.913100 0
M  V30 369 N -0.874615 5.264198 9.542628 0
M  V30 370 H 0.728031 9.685442 10.913100 0
M  V30 371 N -0.162681 4.783293 9.461260 0
M  V30 372 N -0.047948 7.366079 8.386408 0
M  V30 373 H 0.129592 9.043046 10.913100 0
M  V30 374 N -0.235650 7.781179 9.434542 0
M  V30 375 H -0.262411 5.469360 10.913100 0
M  V30 376 N -0.879004 5.375551 10.014178 0
M  V30 377 N -0.489777 4.896008 9.161685 0
M  V30 378 N -0.599170 4.967262 9.124316 0
M  V30 379 N -0.280985 4.816181 9.477927 0
M  V30 380 N -0.282182 4.817675 9.480631 0
M  V30 381 H -5.053307 10.776700 -2.324300 0
M  V30 382 N -0.951827 4.194912 1.797305 0
M  V30 383 N 0.951095 0.658046 3.641257 0
M  V30 384 H 4.690810 -1.335400 10.913100 0
M  V30 385 N 1.977033 3.098936 7.464674 0
M  V30 386 H 1.160572 10.776700 10.913100 0
M  V30 387 H -5.394400 10.776700 -2.324300 0
M  V30 388 H -5.394400 5.707037 -2.324300 0
M  V30 389 H 3.084694 -1.335400 10.913100 0
M  V30 390 H -0.299531 10.776700 10.913100 0
M  V30 391 H -5.289033 6.680816 4.520129 0
M  V30 392 H -5.350794 6.755892 4.507922 0
M  V30 393 H -5.394400 6.857087 4.493165 0
M  V30 394 H -5.162290 6.604583 4.535268 0
M  V30 395 N -3.973180 0.412508 2.572286 0
M  V30 396 N -3.659429 0.593352 3.373637 0
M  V30 397 N -3.626008 0.619340 3.416220 0
M  V30 398 N -0.265038 -0.466743 7.948520 0
M  V30 399 N -0.212186 -0.660677 8.022168 0
M  V30 400 N -0.263946 -0.507748 7.976842 0
M  V30 401 N -1.033791 5.268881 9.523939 0
M  V30 402 N -1.433652 5.576727 8.843031 0
M  V30 403 N -3.783497 5.780610 5.025091 0
M  V30 404 N -1.334995 3.036673 4.251537 0
M  V30 405 N -2.081123 4.606877 5.137536 0
M  V30 406 N 0.928445 3.964090 4.346327 0
M  V30 407 N 0.913745 4.061751 4.396409 0
M  V30 408 N -1.582008 4.673348 5.090945 0
M  V30 409 H -4.818784 6.208839 4.703728 0
M  V30 410 H -5.394400 6.788146 4.508634 0
M  V30 411 N -1.921641 2.581090 4.471803 0
M  V30 412 N -2.815432 1.923574 3.986196 0
M  V30 413 N -0.238537 2.322383 5.621163 0
M  V30 414 N -3.455731 0.907401 3.723866 0
M  V30 415 N -3.624262 0.622780 3.425866 0
M  V30 416 H -5.394400 -1.335400 2.599853 0
M  V30 417 H -5.394400 -0.579755 2.465106 0
M  V30 418 N -4.630534 0.037690 2.847108 0
M  V30 419 N -0.579131 2.116450 6.071783 0
M  V30 420 N -0.582163 4.090621 6.643896 0
M  V30 421 N -0.520506 0.541782 6.986880 0
M  V30 422 N -0.278368 4.507323 9.391255 0
M  V30 423 N -0.482654 -0.040677 7.719857 0
M  V30 424 H -0.193207 -1.335400 8.306633 0
M  V30 425 H -0.135036 -1.335400 10.913100 0
M  V30 426 N -0.278368 4.507323 9.391255 0
M  V30 427 N -1.043305 4.837948 8.850017 0
M  V30 428 N -0.805498 4.128584 6.796958 0
M  V30 429 N -1.163715 5.040616 9.146566 0
M  V30 430 N -1.057872 5.263269 9.511250 0
M  V30 431 H -1.253703 5.605892 10.913100 0
M  V30 432 H -5.394400 10.776700 10.913100 0
M  V30 433 N -1.141901 5.366485 10.177801 0
M  V30 434 H -5.394400 10.506350 10.913100 0
M  V30 435 N -1.130482 5.271662 9.619516 0
M  V30 436 N -4.093787 3.813766 6.110212 0
M  V30 437 N -3.183732 2.205681 5.116108 0
M  V30 438 N -3.666760 4.152828 5.951974 0
M  V30 439 H -5.394400 6.651142 4.570235 0
M  V30 440 H -5.394400 -0.181471 3.209553 0
M  V30 441 N -3.612081 1.975862 5.605665 0
M  V30 442 N -2.140377 1.630859 6.924882 0
M  V30 443 H -5.394400 -1.335400 7.353811 0
M  V30 444 H -5.394400 0.140386 4.356571 0
M  V30 445 N -2.484513 1.675632 7.156772 0
M  V30 446 N -2.491199 3.623696 7.723669 0
M  V30 447 H -5.276489 -1.335400 10.913100 0
M  V30 448 H -2.846600 -1.335400 9.377289 0
M  V30 449 H -2.491833 4.945645 10.913100 0
M  V30 450 N -2.604782 3.607573 7.737003 0
M  V30 451 H -5.394400 4.405462 10.913100 0
M  V30 452 H -3.536179 4.518697 10.913100 0
M  V30 453 H -5.271363 2.124931 7.729348 0
M  V30 454 H -5.375190 2.151940 7.596094 0
M  V30 455 H -5.394400 2.146233 7.605430 0
M  V30 456 H -5.394400 -1.335400 10.187952 0
M  V30 457 H -5.394400 2.086392 7.795443 0
M  V30 458 H -5.394400 -1.335400 10.913100 0
M  V30 459 H -5.394400 3.487908 10.913100 0
M  V30 END ATOM
M  V30 BEGIN BOND
M  V30 1 1 1 17
M  V30 2 1 1 8
M  V30 3 1 1 5
M  V30 4 1 2 10
M  V30 5 1 3 7
M  V30 6 1 3 9
M  V30 7 1 4 6
M  V30 8 1 4 11
M  V30 9 1 5 21
M  V30 10 1 5 7
M  V30 11 1 6 19
M  V30 12 1 6 14
M  V30 13 1 7 8
M  V30 14 1 8 13
M  V30 15 1 10 19
M  V30 16 1 12 13
M  V30 17 1 15 18
M  V30 18 1 16 17
M  V30 19 1 18 19
M  V30 20 1 20 21
M  V30 21 1 9 24
M  V30 22 1 18 26
M  V30 23 1 15 24
M  V30 24 1 12 22
M  V30 25 1 13 23
M  V30 26 1 2 22
M  V30 27 1 22 23
M  V30 28 1 24 27
M  V30 29 1 25 27
M  V30 30 1 25 26
M  V30 31 1 26 27
M  V30 32 1 16 29
M  V30 33 1 22 32
M  V30 34 1 11 29
M  V30 35 1 28 32
M  V30 36 1 28 31
M  V30 37 1 10 31
M  V30 38 1 17 30
M  V30 39 1 29 30
M  V30 40 1 31 32
M  V30 41 1 4 36
M  V30 42 1 21 35
M  V30 43 1 33 37
M  V30 44 1 33 36
M  V30 45 1 29 37
M  V30 46 1 34 35
M  V30 47 1 36 37
M  V30 48 1 34 38
M  V30 49 1 24 39
M  V30 50 1 38 41
M  V30 51 1 38 40
M  V30 52 1 14 41
M  V30 53 1 39 3
M  V30 54 1 40 41
M  V30 55 1 23 44
M  V30 56 1 42 46
M  V30 57 1 42 62
M  V30 58 1 42 60
M  V30 59 1 31 55
M  V30 60 1 43 48
M  V30 61 1 43 53
M  V30 62 1 43 57
M  V30 63 1 44 52
M  V30 64 1 32 52
M  V30 65 1 45 62
M  V30 66 1 45 55
M  V30 67 1 45 64
M  V30 68 1 46 56
M  V30 69 1 47 50
M  V30 70 1 47 49
M  V30 71 1 19 65
M  V30 72 1 48 54
M  V30 73 1 48 53
M  V30 74 1 49 57
M  V30 75 1 49 50
M  V30 76 1 50 56
M  V30 77 1 51 63
M  V30 78 1 51 61
M  V30 79 1 51 59
M  V30 80 1 54 25
M  V30 81 1 55 62
M  V30 82 1 56 59
M  V30 83 1 57 61
M  V30 84 1 26 61
M  V30 85 1 58 60
M  V30 86 1 58 65
M  V30 87 1 58 63
M  V30 88 1 59 63
M  V30 89 1 60 64
M  V30 90 1 64 65
M  V30 91 1 8 69
M  V30 92 1 66 74
M  V30 93 1 66 69
M  V30 94 1 66 70
M  V30 95 1 7 73
M  V30 96 1 67 78
M  V30 97 1 67 75
M  V30 98 1 67 54
M  V30 99 1 44 68
M  V30 100 1 68 70
M  V30 101 1 69 70
M  V30 102 1 39 72
M  V30 103 1 71 77
M  V30 104 1 71 74
M  V30 105 1 71 75
M  V30 106 1 72 78
M  V30 107 1 72 76
M  V30 108 1 73 77
M  V30 109 1 73 74
M  V30 110 1 75 76
M  V30 111 1 76 77
M  V30 112 1 27 78
M  V30 113 1 79 84
M  V30 114 1 79 86
M  V30 115 1 80 81
M  V30 116 1 80 37
M  V30 117 1 81 30
M  V30 118 1 6 92
M  V30 119 1 82 90
M  V30 120 1 82 87
M  V30 121 1 82 88
M  V30 122 1 55 84
M  V30 123 1 28 83
M  V30 124 1 36 87
M  V30 125 1 83 84
M  V30 126 1 64 85
M  V30 127 1 85 89
M  V30 128 1 85 91
M  V30 129 1 86 45
M  V30 130 1 86 89
M  V30 131 1 87 88
M  V30 132 1 88 91
M  V30 133 1 65 92
M  V30 134 1 89 90
M  V30 135 1 91 92
M  V30 136 1 1 93
M  V30 137 1 93 97
M  V30 138 1 93 69
M  V30 139 1 81 99
M  V30 140 1 94 101
M  V30 141 1 94 70
M  V30 142 1 94 97
M  V30 143 1 95 52
M  V30 144 1 95 96
M  V30 145 1 95 98
M  V30 146 1 96 101
M  V30 147 1 96 100
M  V30 148 1 97 99
M  V30 149 1 68 100
M  V30 150 1 83 98
M  V30 151 1 100 101
M  V30 152 1 102 87
M  V30 153 1 102 107
M  V30 154 1 102 103
M  V30 155 1 103 104
M  V30 156 1 103 111
M  V30 157 1 33 105
M  V30 158 1 104 106
M  V30 159 1 105 110
M  V30 160 1 105 107
M  V30 161 1 106 118
M  V30 162 1 106 115
M  V30 163 1 107 110
M  V30 164 1 38 109
M  V30 165 1 108 35
M  V30 166 1 108 109
M  V30 167 1 41 112
M  V30 168 1 111 88
M  V30 169 1 111 113
M  V30 170 1 112 114
M  V30 171 1 112 116
M  V30 172 1 113 118
M  V30 173 1 113 119
M  V30 174 1 114 115
M  V30 175 1 115 116
M  V30 176 1 116 117
M  V30 177 1 117 120
M  V30 178 1 117 118
M  V30 179 1 92 120
M  V30 180 1 91 119
M  V30 181 1 119 120
M  V30 182 1 121 123
M  V30 183 1 121 108
M  V30 184 1 122 125
M  V30 185 1 122 93
M  V30 186 1 122 123
M  V30 187 1 5 123
M  V30 188 1 105 125
M  V30 189 1 97 127
M  V30 190 1 124 127
M  V30 191 1 124 128
M  V30 192 1 124 126
M  V30 193 1 99 126
M  V30 194 1 125 128
M  V30 195 1 126 127
M  V30 196 1 80 128
M  V30 197 1 112 134
M  V30 198 1 129 134
M  V30 199 1 129 133
M  V30 200 1 130 131
M  V30 201 1 130 134
M  V30 202 1 131 40
M  V30 203 1 132 138
M  V30 204 1 132 136
M  V30 205 1 132 137
M  V30 206 1 51 139
M  V30 207 1 133 140
M  V30 208 1 133 136
M  V30 209 1 61 135
M  V30 210 1 135 139
M  V30 211 1 116 136
M  V30 212 1 137 58
M  V30 213 1 137 141
M  V30 214 1 138 120
M  V30 215 1 138 117
M  V30 216 1 139 140
M  V30 217 1 140 141
M  V30 218 1 63 141
M  V30 219 1 76 147
M  V30 220 1 109 143
M  V30 221 1 123 146
M  V30 222 1 142 146
M  V30 223 1 142 144
M  V30 224 1 121 145
M  V30 225 1 143 144
M  V30 226 1 143 131
M  V30 227 1 144 145
M  V30 228 1 145 146
M  V30 229 1 147 77
M  V30 230 1 148 150
M  V30 231 1 148 96
M  V30 232 1 148 95
M  V30 233 1 149 152
M  V30 234 1 149 49
M  V30 235 1 150 151
M  V30 236 1 152 57
M  V30 237 1 152 43
M  V30 238 1 153 160
M  V30 239 1 153 94
M  V30 240 1 153 101
M  V30 241 1 48 155
M  V30 242 1 154 160
M  V30 243 1 154 156
M  V30 244 1 154 66
M  V30 245 1 155 159
M  V30 246 1 67 157
M  V30 247 1 156 158
M  V30 248 1 156 159
M  V30 249 1 157 75
M  V30 250 1 157 159
M  V30 251 1 158 71
M  V30 252 1 158 74
M  V30 253 1 128 164
M  V30 254 1 161 165
M  V30 255 1 161 79
M  V30 256 1 162 98
M  V30 257 1 162 163
M  V30 258 1 163 84
M  V30 259 1 163 165
M  V30 260 1 166 148
M  V30 261 1 166 153
M  V30 262 1 166 167
M  V30 263 1 162 167
M  V30 264 1 144 171
M  V30 265 1 168 169
M  V30 266 1 168 170
M  V30 267 1 104 176
M  V30 268 1 169 102
M  V30 269 1 169 172
M  V30 270 1 170 176
M  V30 271 1 170 103
M  V30 272 1 143 173
M  V30 273 1 171 173
M  V30 274 1 171 174
M  V30 275 1 172 107
M  V30 276 1 173 175
M  V30 277 1 174 175
M  V30 278 1 177 125
M  V30 279 1 177 178
M  V30 280 1 177 180
M  V30 281 1 178 122
M  V30 282 1 178 179
M  V30 283 1 179 180
M  V30 284 1 179 146
M  V30 285 1 172 180
M  V30 286 1 181 182
M  V30 287 1 181 184
M  V30 288 1 182 134
M  V30 289 1 182 183
M  V30 290 1 157 185
M  V30 291 1 183 130
M  V30 292 1 184 129
M  V30 293 1 142 171
M  V30 294 1 183 186
M  V30 295 1 186 173
M  V30 296 1 187 150
M  V30 297 1 187 188
M  V30 298 1 187 189
M  V30 299 1 160 189
M  V30 300 1 166 189
M  V30 301 1 188 190
M  V30 302 1 188 149
M  V30 303 1 155 190
M  V30 304 1 152 190
M  V30 305 1 187 191
M  V30 306 1 151 191
M  V30 307 1 191 193
M  V30 308 1 188 194
M  V30 309 1 192 194
M  V30 310 1 192 50
M  V30 311 1 193 194
M  V30 312 1 167 196
M  V30 313 1 165 195
M  V30 314 1 195 196
M  V30 315 1 163 196
M  V30 316 1 197 201
M  V30 317 1 197 161
M  V30 318 1 164 199
M  V30 319 1 198 200
M  V30 320 1 198 199
M  V30 321 1 200 202
M  V30 322 1 200 201
M  V30 323 1 195 202
M  V30 324 1 201 202
M  V30 325 1 203 205
M  V30 326 1 203 204
M  V30 327 1 203 168
M  V30 328 1 174 204
M  V30 329 1 180 205
M  V30 330 1 204 179
M  V30 331 1 169 205
M  V30 332 1 170 206
M  V30 333 1 206 203
M  V30 334 1 206 208
M  V30 335 1 207 209
M  V30 336 1 207 204
M  V30 337 1 207 175
M  V30 338 1 208 209
M  V30 339 1 159 214
M  V30 340 1 186 215
M  V30 341 1 210 213
M  V30 342 1 210 212
M  V30 343 1 210 181
M  V30 344 1 211 213
M  V30 345 1 211 156
M  V30 346 1 211 212
M  V30 347 1 212 214
M  V30 348 1 213 215
M  V30 349 1 214 185
M  V30 350 1 215 182
M  V30 351 1 214 216
M  V30 352 1 216 217
M  V30 353 1 217 218
M  V30 354 1 217 212
M  V30 355 1 218 220
M  V30 356 1 210 222
M  V30 357 1 184 219
M  V30 358 1 219 221
M  V30 359 1 220 222
M  V30 360 1 220 221
M  V30 361 1 221 222
M  V30 362 1 223 225
M  V30 363 1 223 192
M  V30 364 1 223 226
M  V30 365 1 224 228
M  V30 366 1 224 191
M  V30 367 1 224 227
M  V30 368 1 193 228
M  V30 369 1 225 56
M  V30 370 1 225 226
M  V30 371 1 226 231
M  V30 372 1 229 230
M  V30 373 1 229 233
M  V30 374 1 230 232
M  V30 375 1 231 232
M  V30 376 1 231 233
M  V30 377 1 233 46
M  V30 378 1 197 239
M  V30 379 1 234 238
M  V30 380 1 234 199
M  V30 381 1 234 236
M  V30 382 1 198 238
M  V30 383 1 235 241
M  V30 384 1 235 237
M  V30 385 1 235 90
M  V30 386 1 236 240
M  V30 387 1 237 241
M  V30 388 1 86 239
M  V30 389 1 238 240
M  V30 390 1 239 243
M  V30 391 1 241 242
M  V30 392 1 242 243
M  V30 393 1 89 243
M  V30 394 1 208 244
M  V30 395 1 244 245
M  V30 396 1 244 209
M  V30 397 1 246 248
M  V30 398 1 246 247
M  V30 399 1 246 249
M  V30 400 1 219 133
M  V30 401 1 218 248
M  V30 402 1 247 217
M  V30 403 1 247 216
M  V30 404 1 135 250
M  V30 405 1 139 250
M  V30 406 1 189 251
M  V30 407 1 251 253
M  V30 408 1 251 196
M  V30 409 1 229 62
M  V30 410 1 233 42
M  V30 411 1 252 227
M  V30 412 1 252 224
M  V30 413 1 252 253
M  V30 414 1 254 258
M  V30 415 1 254 194
M  V30 416 1 254 264
M  V30 417 1 255 226
M  V30 418 1 255 258
M  V30 419 1 255 261
M  V30 420 1 223 258
M  V30 421 1 256 257
M  V30 422 1 256 260
M  V30 423 1 256 263
M  V30 424 1 232 259
M  V30 425 1 228 257
M  V30 426 1 257 264
M  V30 427 1 259 262
M  V30 428 1 260 261
M  V30 429 1 260 262
M  V30 430 1 261 263
M  V30 431 1 262 231
M  V30 432 1 263 264
M  V30 433 1 265 266
M  V30 434 1 265 267
M  V30 435 1 205 267
M  V30 436 1 266 236
M  V30 437 1 266 234
M  V30 438 1 267 177
M  V30 439 1 235 82
M  V30 440 1 268 269
M  V30 441 1 268 272
M  V30 442 1 268 276
M  V30 443 1 200 274
M  V30 444 1 201 275
M  V30 445 1 269 273
M  V30 446 1 269 275
M  V30 447 1 270 271
M  V30 448 1 270 276
M  V30 449 1 270 272
M  V30 450 1 238 271
M  V30 451 1 271 274
M  V30 452 1 272 274
M  V30 453 1 239 273
M  V30 454 1 243 277
M  V30 455 1 273 275
M  V30 456 1 276 277
M  V30 457 1 242 278
M  V30 458 1 277 278
M  V30 459 1 244 280
M  V30 460 1 245 280
M  V30 461 1 279 283
M  V30 462 1 279 206
M  V30 463 1 279 282
M  V30 464 1 113 284
M  V30 465 1 280 281
M  V30 466 1 111 283
M  V30 467 1 281 282
M  V30 468 1 281 284
M  V30 469 1 282 285
M  V30 470 1 283 285
M  V30 471 1 284 285
M  V30 472 1 286 280
M  V30 473 1 286 287
M  V30 474 1 280 290
M  V30 475 1 287 288
M  V30 476 1 287 289
M  V30 477 1 288 207
M  V30 478 1 288 289
M  V30 479 1 244 290
M  V30 480 1 289 215
M  V30 481 1 291 293
M  V30 482 1 291 247
M  V30 483 1 291 190
M  V30 484 1 292 249
M  V30 485 1 292 293
M  V30 486 1 293 246
M  V30 487 1 220 301
M  V30 488 1 141 303
M  V30 489 1 221 298
M  V30 490 1 294 296
M  V30 491 1 294 295
M  V30 492 1 294 302
M  V30 493 1 295 297
M  V30 494 1 295 300
M  V30 495 1 248 297
M  V30 496 1 296 299
M  V30 497 1 296 300
M  V30 498 1 136 298
M  V30 499 1 137 302
M  V30 500 1 297 301
M  V30 501 1 298 299
M  V30 502 1 132 299
M  V30 503 1 300 301
M  V30 504 1 302 303
M  V30 505 1 273 230
M  V30 506 1 202 305
M  V30 507 1 304 253
M  V30 508 1 304 251
M  V30 509 1 304 305
M  V30 510 1 306 314
M  V30 511 1 306 310
M  V30 512 1 306 311
M  V30 513 1 307 318
M  V30 514 1 307 313
M  V30 515 1 307 312
M  V30 516 1 308 321
M  V30 517 1 308 319
M  V30 518 1 308 318
M  V30 519 1 252 311
M  V30 520 1 309 314
M  V30 521 1 309 313
M  V30 522 1 310 257
M  V30 523 1 310 315
M  V30 524 1 312 320
M  V30 525 1 313 314
M  V30 526 1 262 316
M  V30 527 1 260 319
M  V30 528 1 315 317
M  V30 529 1 315 318
M  V30 530 1 256 317
M  V30 531 1 316 320
M  V30 532 1 316 321
M  V30 533 1 317 319
M  V30 534 1 320 321
M  V30 535 1 265 323
M  V30 536 1 279 324
M  V30 537 1 322 241
M  V30 538 1 322 283
M  V30 539 1 323 267
M  V30 540 1 323 324
M  V30 541 1 325 326
M  V30 542 1 325 332
M  V30 543 1 325 327
M  V30 544 1 277 333
M  V30 545 1 276 330
M  V30 546 1 326 328
M  V30 547 1 326 266
M  V30 548 1 327 271
M  V30 549 1 327 337
M  V30 550 1 328 329
M  V30 551 1 329 332
M  V30 552 1 329 331
M  V30 553 1 330 338
M  V30 554 1 330 270
M  V30 555 1 331 335
M  V30 556 1 332 334
M  V30 557 1 333 339
M  V30 558 1 333 336
M  V30 559 1 334 337
M  V30 560 1 334 335
M  V30 561 1 335 342
M  V30 562 1 336 339
M  V30 563 1 336 341
M  V30 564 1 337 338
M  V30 565 1 338 341
M  V30 566 1 339 340
M  V30 567 1 340 342
M  V30 568 1 341 342
M  V30 569 1 280 350
M  V30 570 1 343 356
M  V30 571 1 343 351
M  V30 572 1 343 360
M  V30 573 1 344 357
M  V30 574 1 344 349
M  V30 575 1 344 354
M  V30 576 1 345 349
M  V30 577 1 345 348
M  V30 578 1 284 358
M  V30 579 1 346 357
M  V30 580 1 346 348
M  V30 581 1 346 349
M  V30 582 1 347 353
M  V30 583 1 347 355
M  V30 584 1 347 359
M  V30 585 1 348 352
M  V30 586 1 281 351
M  V30 587 1 119 355
M  V30 588 1 286 352
M  V30 589 1 351 356
M  V30 590 1 353 354
M  V30 591 1 353 355
M  V30 592 1 356 358
M  V30 593 1 357 360
M  V30 594 1 358 359
M  V30 595 1 359 360
M  V30 596 1 289 213
M  V30 597 1 287 361
M  V30 598 1 352 361
M  V30 599 1 222 362
M  V30 600 1 361 362
M  V30 601 1 291 363
M  V30 602 1 293 364
M  V30 603 1 363 364
M  V30 604 1 363 365
M  V30 605 1 292 364
M  V30 606 1 254 365
M  V30 607 1 59 225
M  V30 608 1 366 376
M  V30 609 1 366 374
M  V30 610 1 366 369
M  V30 611 1 367 378
M  V30 612 1 367 302
M  V30 613 1 367 377
M  V30 614 1 368 375
M  V30 615 1 368 373
M  V30 616 1 368 376
M  V30 617 1 295 371
M  V30 618 1 294 371
M  V30 619 1 297 375
M  V30 620 1 369 378
M  V30 621 1 370 373
M  V30 622 1 370 364
M  V30 623 1 370 372
M  V30 624 1 371 379
M  V30 625 1 372 374
M  V30 626 1 373 374
M  V30 627 1 375 380
M  V30 628 1 376 380
M  V30 629 1 377 378
M  V30 630 1 377 379
M  V30 631 1 379 380
M  V30 632 1 381 311
M  V30 633 1 381 304
M  V30 634 1 381 305
M  V30 635 1 269 382
M  V30 636 1 324 328
M  V30 637 1 323 326
M  V30 638 1 322 383
M  V30 639 1 384 348
M  V30 640 1 384 361
M  V30 641 1 384 362
M  V30 642 1 385 299
M  V30 643 1 370 386
M  V30 644 1 386 363
M  V30 645 1 386 365
M  V30 646 1 274 388
M  V30 647 1 387 388
M  V30 648 1 387 306
M  V30 649 1 387 381
M  V30 650 1 314 388
M  V30 651 1 382 268
M  V30 652 1 383 285
M  V30 653 1 384 389
M  V30 654 1 346 389
M  V30 655 1 389 301
M  V30 656 1 385 296
M  V30 657 1 264 390
M  V30 658 1 386 390
M  V30 659 1 390 373
M  V30 660 1 313 393
M  V30 661 1 391 392
M  V30 662 1 391 394
M  V30 663 1 392 393
M  V30 664 1 312 394
M  V30 665 1 307 393
M  V30 666 1 395 342
M  V30 667 1 395 335
M  V30 668 1 395 396
M  V30 669 1 396 397
M  V30 670 1 397 340
M  V30 671 1 344 399
M  V30 672 1 398 354
M  V30 673 1 398 400
M  V30 674 1 399 400
M  V30 675 1 366 401
M  V30 676 1 401 402
M  V30 677 1 401 369
M  V30 678 1 85 406
M  V30 679 1 320 403
M  V30 680 1 403 409
M  V30 681 1 403 405
M  V30 682 1 333 404
M  V30 683 1 404 406
M  V30 684 1 405 408
M  V30 685 1 60 407
M  V30 686 1 406 407
M  V30 687 1 316 408
M  V30 688 1 407 408
M  V30 689 1 409 394
M  V30 690 1 327 388
M  V30 691 1 410 393
M  V30 692 1 410 392
M  V30 693 1 411 404
M  V30 694 1 412 414
M  V30 695 1 412 339
M  V30 696 1 397 415
M  V30 697 1 355 413
M  V30 698 1 413 406
M  V30 699 1 414 415
M  V30 700 1 334 417
M  V30 701 1 416 417
M  V30 702 1 416 332
M  V30 703 1 417 418
M  V30 704 1 418 395
M  V30 705 1 418 396
M  V30 706 1 419 413
M  V30 707 1 419 421
M  V30 708 1 420 367
M  V30 709 1 420 407
M  V30 710 1 421 423
M  V30 711 1 421 353
M  V30 712 1 422 379
M  V30 713 1 423 398
M  V30 714 1 424 357
M  V30 715 1 424 425
M  V30 716 1 424 399
M  V30 717 1 379 426
M  V30 718 1 389 425
M  V30 719 1 426 380
M  V30 720 1 427 429
M  V30 721 1 427 428
M  V30 722 1 427 378
M  V30 723 1 420 428
M  V30 724 1 401 430
M  V30 725 1 402 430
M  V30 726 1 429 430
M  V30 727 1 368 431
M  V30 728 1 431 433
M  V30 729 1 431 434
M  V30 730 1 390 432
M  V30 731 1 432 310
M  V30 732 1 432 434
M  V30 733 1 315 434
M  V30 734 1 433 376
M  V30 735 1 433 435
M  V30 736 1 430 435
M  V30 737 1 412 437
M  V30 738 1 436 409
M  V30 739 1 436 438
M  V30 740 1 403 438
M  V30 741 1 417 440
M  V30 742 1 439 410
M  V30 743 1 439 391
M  V30 744 1 418 440
M  V30 745 1 441 437
M  V30 746 1 441 414
M  V30 747 1 421 442
M  V30 748 1 360 443
M  V30 749 1 416 443
M  V30 750 1 443 444
M  V30 751 1 415 444
M  V30 752 1 440 444
M  V30 753 1 423 445
M  V30 754 1 445 442
M  V30 755 1 427 446
M  V30 756 1 425 447
M  V30 757 1 447 448
M  V30 758 1 447 449
M  V30 759 1 433 449
M  V30 760 1 422 380
M  V30 761 1 424 448
M  V30 762 1 400 448
M  V30 763 1 431 449
M  V30 764 1 446 450
M  V30 765 1 450 429
M  V30 766 1 434 451
M  V30 767 1 318 451
M  V30 768 1 435 452
M  V30 769 1 451 452
M  V30 770 1 449 452
M  V30 771 1 453 454
M  V30 772 1 453 445
M  V30 773 1 453 450
M  V30 774 1 441 454
M  V30 775 1 454 436
M  V30 776 1 454 455
M  V30 777 1 444 455
M  V30 778 1 439 455
M  V30 779 1 443 456
M  V30 780 1 456 457
M  V30 781 1 456 448
M  V30 782 1 455 457
M  V30 783 1 457 453
M  V30 784 1 458 459
M  V30 785 1 458 456
M  V30 786 1 458 447
M  V30 787 1 457 459
M  V30 788 1 459 452
M  V30 789 1 459 451
M  V30 END BOND
M  V30 END CTAB
M  END
