	90

C	15.465000	7.504000	6.145000
C	16.779000	8.958000	5.591000
C	16.644000	9.499000	4.342000
C	17.439000	10.528000	3.944000
C	18.391000	11.057000	4.810000
C	18.522000	10.482000	6.076000
C	17.694000	9.416000	6.424000
C	19.501000	10.955000	7.018000
C	20.331000	11.358000	7.786000
C	21.379000	11.810000	8.646000
C	22.290000	12.789000	8.178000
C	23.369000	13.152000	8.985000
C	23.522000	12.616000	10.246000
C	22.577000	11.684000	10.737000
C	21.524000	11.271000	9.911000
C	22.708000	11.169000	12.092000
C	22.798000	10.785000	13.196000
C	21.959000	8.925000	16.270000
C	21.971000	9.355000	14.979000
C	22.841000	10.336000	14.554000
C	23.769000	10.878000	15.511000
C	23.749000	10.393000	16.792000
C	22.836000	9.424000	17.164000
C	20.633000	7.504000	16.811000
C	14.139000	8.925000	6.695000
C	13.292000	9.463000	5.798000
C	12.372000	10.437000	6.143000
C	12.331000	10.884000	7.477000
C	13.200000	10.351000	8.376000
C	14.110000	9.350000	7.942000
C	13.260000	10.782000	9.733000
C	13.349000	11.174000	10.898000
C	13.457000	11.675000	12.218000
C	12.556000	12.618000	12.688000
C	12.703000	13.137000	13.977000
C	13.753000	12.723000	14.778000
C	14.659000	11.773000	14.322000
C	14.519000	11.246000	13.019000
C	15.714000	11.318000	15.178000
C	16.563000	10.914000	15.932000
C	19.347000	8.945000	17.374000
C	18.408000	9.415000	16.518000
C	17.538000	10.459000	16.864000
C	17.665000	11.027000	18.147000
C	18.604000	10.518000	19.012000
C	19.442000	9.476000	18.582000
C	16.779000	6.050000	5.591000
C	16.644000	5.510000	4.342000
C	17.439000	4.480000	3.944000
C	18.391000	3.952000	4.810000
C	18.522000	4.527000	6.076000
C	17.694000	5.592000	6.424000
C	19.501000	4.054000	7.018000
C	20.331000	3.650000	7.786000
C	21.379000	3.198000	8.646000
C	22.290000	2.220000	8.178000
C	23.369000	1.857000	8.985000
C	23.522000	2.392000	10.246000
C	22.577000	3.324000	10.737000
C	21.524000	3.737000	9.911000
C	22.708000	3.839000	12.092000
C	22.798000	4.223000	13.196000
C	21.959000	6.083000	16.270000
C	21.971000	5.654000	14.979000
C	22.841000	4.672000	14.554000
C	23.769000	4.130000	15.511000
C	23.749000	4.615000	16.792000
C	22.836000	5.585000	17.164000
C	14.139000	6.083000	6.695000
C	13.292000	5.546000	5.798000
C	12.372000	4.572000	6.143000
C	12.331000	4.124000	7.477000
C	13.200000	4.657000	8.376000
C	14.110000	5.658000	7.942000
C	13.260000	4.226000	9.733000
C	13.349000	3.835000	10.898000
C	13.457000	3.333000	12.218000
C	12.556000	2.391000	12.688000
C	12.703000	1.872000	13.977000
C	13.753000	2.286000	14.778000
C	14.659000	3.236000	14.322000
C	14.519000	3.763000	13.019000
C	15.714000	3.691000	15.178000
C	16.563000	4.094000	15.932000
C	19.347000	6.064000	17.374000
C	18.408000	5.594000	16.518000
C	17.538000	4.549000	16.864000
C	17.665000	3.982000	18.147000
C	18.604000	4.491000	19.012000
C	19.442000	5.532000	18.582000
