
     RDKit          3D

  0  0  0  0  0  0  0  0  0  0999 V3000
M  V30 BEGIN CTAB
M  V30 COUNTS 462 826 0 0 0
M  V30 BEGIN ATOM
M  V30 1 N 13.607996 7.504000 5.608311 0
M  V30 2 N 14.470531 7.504000 7.687804 0
M  V30 3 N 16.423205 7.504500 4.446072 0
M  V30 4 N 13.607820 7.504500 5.606594 0
M  V30 5 H 15.052264 7.504500 3.549600 0
M  V30 6 N 15.933815 9.012062 7.241988 0
M  V30 7 N 15.083700 5.987458 5.247906 0
M  V30 8 N 15.083547 9.020541 5.247539 0
M  V30 9 H 13.936295 7.504500 3.549600 0
M  V30 10 N 16.938659 7.504000 9.548858 0
M  V30 11 N 16.424291 7.504000 4.447335 0
M  V30 12 N 15.933815 5.995938 7.241988 0
M  V30 13 N 15.015522 8.988152 5.167219 0
M  V30 14 H 14.324194 7.934773 3.549600 0
M  V30 15 N 17.313284 7.504000 6.555887 0
M  V30 16 N 15.900837 9.026672 7.202113 0
M  V30 17 N 15.900837 5.981328 7.202113 0
M  V30 18 H 14.324192 7.074010 3.549600 0
M  V30 19 N 15.015677 6.019851 5.167600 0
M  V30 20 N 15.496342 11.579064 6.311137 0
M  V30 21 N 15.581857 11.064283 6.500240 0
M  V30 22 H 19.539400 7.504000 4.110634 0
M  V30 23 H 19.540516 7.504500 4.109133 0
M  V30 24 H 20.124580 7.504500 3.814576 0
M  V30 25 N 16.748945 10.819463 5.642382 0
M  V30 26 N 15.470707 12.057915 6.291045 0
M  V30 27 H 14.281432 11.916397 3.549600 0
M  V30 28 N 15.485208 12.031820 6.323784 0
M  V30 29 N 15.492964 11.605034 6.313876 0
M  V30 30 N 15.482391 11.623862 6.307213 0
M  V30 31 N 15.492458 12.006748 6.330146 0
M  V30 32 N 15.486563 12.024063 6.326714 0
M  V30 33 H 19.991925 7.504500 3.549600 0
M  V30 34 H 16.625727 14.467200 3.549600 0
M  V30 35 H 14.973741 14.467200 5.365640 0
M  V30 36 H 14.185608 14.467200 3.549600 0
M  V30 37 H 20.224210 7.504000 3.804108 0
M  V30 38 H 14.227658 12.125786 3.549600 0
M  V30 39 N 15.394155 12.273376 6.243583 0
M  V30 40 H 20.227131 7.504500 3.804032 0
M  V30 41 H 20.290253 7.504000 3.770560 0
M  V30 42 H 20.127475 7.504000 3.814055 0
M  V30 43 H 19.995081 7.504000 3.549600 0
M  V30 44 H 20.491253 7.504000 3.549600 0
M  V30 45 H 20.494706 7.504500 3.549600 0
M  V30 46 H 20.294294 7.504500 3.769915 0
M  V30 47 H 20.051790 14.467200 5.517993 0
M  V30 48 H 22.423442 7.504500 3.549600 0
M  V30 49 H 16.446509 14.467200 7.330430 0
M  V30 50 H 23.346811 7.714867 3.549600 0
M  V30 51 H 21.753730 14.467200 3.549600 0
M  V30 52 H 20.055500 14.467200 5.515574 0
M  V30 53 H 20.073221 14.445503 5.506216 0
M  V30 54 H 23.587878 10.338250 3.549600 0
M  V30 55 H 15.029352 14.467200 5.616744 0
M  V30 56 H 15.771550 14.467200 7.303177 0
M  V30 57 N 15.469813 12.251974 6.425369 0
M  V30 58 H 15.833823 14.467200 7.393828 0
M  V30 59 N 15.417194 12.293576 6.357008 0
M  V30 60 N 15.420238 12.258712 6.354537 0
M  V30 61 N 15.426998 12.241014 6.360874 0
M  V30 62 N 15.482713 12.043150 6.329188 0
M  V30 63 H 23.448449 7.504500 3.549600 0
M  V30 64 H 16.019271 14.467200 7.774449 0
M  V30 65 H 15.963855 14.467200 7.694711 0
M  V30 66 N 16.442498 12.000988 8.572941 0
M  V30 67 N 16.328253 12.173105 8.407233 0
M  V30 68 N 16.431732 12.034037 8.567535 0
M  V30 69 N 21.132011 7.504500 5.957023 0
M  V30 70 N 20.088271 7.504500 9.132170 0
M  V30 71 N 17.653344 9.765107 10.623216 0
M  V30 72 N 17.163172 10.419366 10.205689 0
M  V30 73 N 20.065893 7.504000 9.176210 0
M  V30 74 N 17.660706 7.504000 11.253611 0
M  V30 75 N 17.609395 9.857630 10.576384 0
M  V30 76 N 17.166389 10.439772 10.201575 0
M  V30 77 N 17.171170 10.528493 10.171357 0
M  V30 78 N 17.182449 10.507899 10.190403 0
M  V30 79 N 21.129883 7.504000 5.958984 0
M  V30 80 N 16.608535 11.660449 8.950149 0
M  V30 81 N 18.017952 7.504000 11.425598 0
M  V30 82 N 20.083546 7.504000 9.142033 0
M  V30 83 N 18.017512 7.504500 11.425815 0
M  V30 84 N 17.660922 7.504500 11.254144 0
M  V30 85 H 24.696510 8.652331 3.549600 0
M  V30 86 H 25.253830 7.504500 3.549600 0
M  V30 87 H 16.676896 14.467200 9.165339 0
M  V30 88 H 16.507506 14.467200 8.896758 0
M  V30 89 N 17.193184 11.527661 10.149864 0
M  V30 90 N 25.241899 7.504500 5.014213 0
M  V30 91 N 23.330949 7.504000 7.343169 0
M  V30 92 H 25.258230 7.504000 3.549600 0
M  V30 93 H 17.095583 14.458865 10.104200 0
M  V30 94 H 25.534972 7.504500 3.549600 0
M  V30 95 H 19.484070 14.467200 8.371266 0
M  V30 96 H 17.097342 14.467200 10.106332 0
M  V30 97 H 17.094011 14.467200 10.101165 0
M  V30 98 H 17.703210 14.032443 10.769930 0
M  V30 99 H 17.601114 14.467200 10.665844 0
M  V30 100 N 25.238745 7.504000 5.018320 0
M  V30 101 H 25.532639 7.504000 3.549600 0
M  V30 102 H 20.638626 14.467200 10.618704 0
M  V30 103 H 26.021896 7.504000 7.034721 0
M  V30 104 N 21.361911 13.572229 10.154462 0
M  V30 105 H 26.036818 7.504500 7.014482 0
M  V30 106 H 26.033523 7.504000 7.019148 0
M  V30 107 H 17.779945 14.467200 10.946379 0
M  V30 108 H 26.094757 7.504500 6.674370 0
M  V30 109 H 26.091568 7.504000 6.678408 0
M  V30 110 H 26.089408 14.467200 3.549600 0
M  V30 111 H 26.145900 7.504500 3.549600 0
M  V30 112 H 26.145900 7.504500 6.605989 0
M  V30 113 H 26.145900 14.299282 3.549600 0
M  V30 114 H 20.814588 14.467200 10.602303 0
M  V30 115 H 20.644642 14.467200 10.621363 0
M  V30 116 H 26.145900 14.467200 3.549600 0
M  V30 117 H 26.145900 7.504500 7.001247 0
M  V30 118 H 26.145900 14.467200 9.960808 0
M  V30 119 H 20.823945 14.467200 10.606533 0
M  V30 120 H 25.976427 7.504000 7.305907 0
M  V30 121 H 24.342379 14.467200 13.728414 0
M  V30 122 H 26.145900 7.504000 7.632082 0
M  V30 123 H 26.145900 7.504000 7.005513 0
M  V30 124 H 21.882398 14.467200 12.643676 0
M  V30 125 H 26.145900 8.790399 10.073882 0
M  V30 126 H 26.145900 12.306127 12.829710 0
M  V30 127 H 24.394865 14.467200 13.741295 0
M  V30 128 H 26.145900 12.705536 13.077614 0
M  V30 129 H 26.145900 14.467200 13.659147 0
M  V30 130 N 24.028072 7.504000 9.789705 0
M  V30 131 H 18.939290 14.316263 12.870846 0
M  V30 132 H 18.966651 14.467200 12.925568 0
M  V30 133 H 18.908119 14.467200 12.835115 0
M  V30 134 H 26.145900 7.504000 9.584955 0
M  V30 135 N 18.404653 9.767906 12.316584 0
M  V30 136 H 18.429043 14.467200 12.306648 0
M  V30 137 N 18.849517 11.662996 12.795494 0
M  V30 138 N 18.407789 9.855409 12.324356 0
M  V30 139 N 20.965746 7.504500 11.452174 0
M  V30 140 N 20.966913 7.504000 11.451517 0
M  V30 141 N 21.361911 13.572229 10.154462 0
M  V30 142 N 18.893374 10.348662 12.710217 0
M  V30 143 H 18.281797 14.467200 12.077484 0
M  V30 144 H 18.345138 14.104611 12.217328 0
M  V30 145 N 18.860246 10.492196 12.734914 0
M  V30 146 N 18.058550 7.504000 11.517102 0
M  V30 147 N 18.399835 7.504500 11.678489 0
M  V30 148 N 18.058114 7.504500 11.517326 0
M  V30 149 N 18.399612 7.504000 11.677954 0
M  V30 150 H 26.145900 7.504000 11.159405 0
M  V30 151 H 19.559770 14.467200 14.118300 0
M  V30 152 H 19.332341 14.467200 13.754355 0
M  V30 153 N 18.918213 10.425335 12.764735 0
M  V30 154 N 18.910709 10.588373 12.822056 0
M  V30 155 N 21.353155 7.504000 11.550118 0
M  V30 156 N 21.350836 7.504500 11.550481 0
M  V30 157 H 20.011013 14.467200 15.146625 0
M  V30 158 H 20.847678 14.467200 15.229121 0
M  V30 159 H 26.145900 8.926530 13.229427 0
M  V30 160 H 20.085372 14.467200 15.253259 0
M  V30 161 N 19.699344 12.126838 14.491681 0
M  V30 162 N 19.626637 12.079862 14.383243 0
M  V30 163 N 19.677928 12.097703 14.458380 0
M  V30 164 H 26.145900 7.504000 12.759092 0
M  V30 165 N 24.099395 7.504000 12.823892 0
M  V30 166 N 24.096825 7.504500 12.824139 0
M  V30 167 N 22.466325 7.504500 17.308969 0
M  V30 168 N 20.403511 10.362175 16.205869 0
M  V30 169 N 22.466164 7.504000 17.307259 0
M  V30 170 N 24.518889 7.504000 15.293568 0
M  V30 171 N 20.676188 11.777737 16.679892 0
M  V30 172 N 20.204260 9.025112 15.758675 0
M  V30 173 N 21.110835 8.965210 17.823365 0
M  V30 174 N 20.612512 11.657452 16.639236 0
M  V30 175 N 20.599766 11.560402 16.648490 0
M  V30 176 N 21.041501 8.998180 17.740026 0
M  V30 177 N 21.633648 7.504000 15.266750 0
M  V30 178 N 21.632592 7.504500 15.265473 0
M  V30 179 N 24.522054 7.504500 15.292331 0
M  V30 180 N 21.415785 11.430517 16.398064 0
M  V30 181 N 25.068920 7.504500 15.075837 0
M  V30 182 N 20.170549 9.010439 15.719228 0
M  V30 183 N 25.155374 7.504500 14.991052 0
M  V30 184 N 20.596283 12.159159 16.582105 0
M  V30 185 N 20.614075 12.124362 16.624654 0
M  V30 186 N 20.599928 12.221650 16.554079 0
M  V30 187 N 24.210360 8.497733 15.349166 0
M  V30 188 N 19.173402 7.504500 13.469406 0
M  V30 189 N 20.673758 12.203743 16.663880 0
M  V30 190 N 20.676962 12.201903 16.666191 0
M  V30 191 N 25.163401 7.504000 14.987808 0
M  V30 192 N 25.157625 7.504000 14.990151 0
M  V30 193 N 20.678300 12.216735 16.667924 0
M  V30 194 N 24.210360 8.497733 15.349166 0
M  V30 195 H 20.329065 14.467200 15.732018 0
M  V30 196 H 20.234714 14.467200 15.596097 0
M  V30 197 N 20.679754 12.211424 16.669523 0
M  V30 198 N 20.677689 12.206405 16.667765 0
M  V30 199 N 20.674723 12.205162 16.664998 0
M  V30 200 H 26.145900 7.504000 14.035082 0
M  V30 201 H 26.145900 7.504000 15.003148 0
M  V30 202 H 21.105055 14.467200 17.528923 0
M  V30 203 H 26.145900 14.467200 17.639488 0
M  V30 204 N 24.210360 8.497733 15.349166 0
M  V30 205 N 21.415785 11.430517 16.398064 0
M  V30 206 N 20.706651 12.242963 16.712447 0
M  V30 207 H 21.126884 14.467200 17.561127 0
M  V30 208 H 22.573259 14.467200 20.913200 0
M  V30 209 H 26.145900 8.730729 20.913200 0
M  V30 210 H 26.145900 14.467200 20.913200 0
M  V30 211 H 26.145900 7.504000 17.712608 0
M  V30 212 H 22.516961 12.149947 20.913200 0
M  V30 213 H 26.145900 7.504500 17.719070 0
M  V30 214 N 25.071182 7.504000 15.074926 0
M  V30 215 H 22.446366 11.876861 20.913200 0
M  V30 216 H 26.145900 7.504500 20.913200 0
M  V30 217 H 22.379376 7.504500 20.913200 0
M  V30 218 N 21.415785 11.430517 16.398064 0
M  V30 219 H 22.024791 7.504500 20.064495 0
M  V30 220 N 19.702511 7.504000 18.503315 0
M  V30 221 N 18.786018 7.504500 16.411148 0
M  V30 222 N 20.204341 5.982863 15.758939 0
M  V30 223 N 20.170731 5.997501 15.719610 0
M  V30 224 N 19.701372 7.504500 18.501993 0
M  V30 225 H 22.024317 7.504000 20.064733 0
M  V30 226 N 21.041459 6.009800 17.739976 0
M  V30 227 N 21.110568 6.042663 17.823044 0
M  V30 228 H 11.477643 7.504500 7.618032 0
M  V30 229 N 15.581857 11.064283 6.500240 0
M  V30 230 H 11.479413 7.504000 7.618243 0
M  V30 231 H 11.097900 9.169547 3.549600 0
M  V30 232 H 11.097900 7.504500 7.762915 0
M  V30 233 H 11.097900 7.673987 7.771848 0
M  V30 234 H 11.097900 7.504500 3.549600 0
M  V30 235 H 11.097900 14.467200 3.549600 0
M  V30 236 H 11.097900 14.467200 5.495913 0
M  V30 237 H 11.097900 7.674361 7.772074 0
M  V30 238 H 11.097900 7.682286 7.798219 0
M  V30 239 H 11.097900 10.171721 9.274158 0
M  V30 240 H 15.337865 14.467200 7.722390 0
M  V30 241 H 11.097900 14.467200 9.236764 0
M  V30 242 H 11.097900 13.854442 9.440664 0
M  V30 243 H 11.726213 14.467200 9.209635 0
M  V30 244 N 11.990960 7.504000 10.081972 0
M  V30 245 H 11.097900 7.504000 10.121459 0
M  V30 246 H 11.097900 7.504000 8.209427 0
M  V30 247 N 14.718851 7.504500 11.376217 0
M  V30 248 N 17.105878 10.344720 10.238181 0
M  V30 249 N 15.060036 7.504000 11.463119 0
M  V30 250 H 11.097900 7.504000 7.763802 0
M  V30 251 N 14.712714 7.504000 11.373704 0
M  V30 252 N 15.058904 7.504500 11.463761 0
M  V30 253 H 11.097900 13.589233 9.605443 0
M  V30 254 H 11.892723 14.467200 9.249304 0
M  V30 255 H 11.097900 7.504500 11.652839 0
M  V30 256 H 11.097900 7.504000 11.649857 0
M  V30 257 N 11.979831 7.504500 13.162259 0
M  V30 258 H 14.326672 14.467200 10.327584 0
M  V30 259 H 11.097900 10.500119 12.097444 0
M  V30 260 H 11.097900 7.504500 13.234417 0
M  V30 261 H 15.395729 14.467200 12.362403 0
M  V30 262 H 11.097900 8.923457 15.091527 0
M  V30 263 H 11.097900 9.024233 15.058637 0
M  V30 264 H 15.388553 14.467200 12.363232 0
M  V30 265 H 11.097900 8.988295 15.088507 0
M  V30 266 H 11.097900 7.504000 13.237387 0
M  V30 267 N 11.973474 7.504000 13.165749 0
M  V30 268 H 11.097900 7.504000 14.326623 0
M  V30 269 H 11.097900 7.504500 14.331561 0
M  V30 270 H 15.356838 14.467200 12.381396 0
M  V30 271 H 11.097900 14.467200 12.867093 0
M  V30 272 H 11.097900 14.467200 17.964274 0
M  V30 273 H 11.097900 9.001089 15.139093 0
M  V30 274 H 15.442096 14.467200 12.382594 0
M  V30 275 H 11.097900 10.080062 20.913200 0
M  V30 276 H 11.097900 14.467200 20.913200 0
M  V30 277 H 11.097900 7.740016 17.766329 0
M  V30 278 H 16.562021 14.467200 14.607709 0
M  V30 279 H 12.999890 14.467200 20.913200 0
M  V30 280 H 11.097900 8.296163 19.719795 0
M  V30 281 H 15.982218 14.467200 17.450195 0
M  V30 282 H 11.097900 8.573717 20.154885 0
M  V30 283 N 14.969999 13.208666 17.991995 0
M  V30 284 H 11.097900 7.504500 15.665426 0
M  V30 285 N 12.854042 7.504500 15.476739 0
M  V30 286 H 11.097900 7.504500 17.641143 0
M  V30 287 N 16.143776 7.504500 13.645037 0
M  V30 288 N 16.070595 7.504500 13.696386 0
M  V30 289 H 11.097900 7.504500 19.295615 0
M  V30 290 H 16.145123 14.467200 17.343146 0
M  V30 291 H 19.513082 14.467200 15.667529 0
M  V30 292 H 11.097900 7.504500 20.209432 0
M  V30 293 N 15.119971 7.504000 16.863910 0
M  V30 294 N 16.141419 7.504000 13.647918 0
M  V30 295 N 16.078991 7.504000 13.691723 0
M  V30 296 H 11.097900 7.504000 20.207868 0
M  V30 297 H 11.097900 7.504000 19.300404 0
M  V30 298 N 15.122014 7.504500 16.862017 0
M  V30 299 N 12.672178 7.504000 19.424637 0
M  V30 300 N 12.669771 7.504500 19.427400 0
M  V30 301 N 16.662098 7.504500 18.741008 0
M  V30 302 N 20.403511 10.362175 16.205869 0
M  V30 303 N 15.992719 7.504500 19.051363 0
M  V30 304 N 16.051869 7.504500 19.046714 0
M  V30 305 N 15.876999 7.504000 19.107403 0
M  V30 306 N 15.874142 7.504500 19.110210 0
M  V30 307 N 15.989923 7.504000 19.051362 0
M  V30 308 H 14.213241 7.504500 20.913200 0
M  V30 309 H 17.987484 14.467200 20.913200 0
M  V30 310 H 11.097900 7.504500 20.913200 0
M  V30 311 H 17.009612 7.504500 20.913200 0
M  V30 312 H 22.378803 7.504000 20.913200 0
M  V30 313 H 17.012587 7.504000 20.913200 0
M  V30 314 N 16.054619 7.504000 19.046277 0
M  V30 315 N 16.660981 7.504000 18.742509 0
M  V30 316 N 15.496004 3.426899 6.310388 0
M  V30 317 N 15.581857 3.943717 6.500240 0
M  V30 318 N 15.485208 2.977180 6.323784 0
M  V30 319 N 16.735397 4.176540 5.649687 0
M  V30 320 H 14.281446 3.093962 3.549600 0
M  V30 321 N 15.471488 2.952492 6.292809 0
M  V30 322 N 15.492608 3.400799 6.313129 0
M  V30 323 N 15.482029 3.381946 6.306457 0
M  V30 324 N 15.486125 2.982425 6.325765 0
M  V30 325 N 15.492035 2.999796 6.329211 0
M  V30 326 H 17.256310 1.671300 3.549600 0
M  V30 327 H 14.205338 1.671300 3.549600 0
M  V30 328 H 15.190771 1.671300 5.820262 0
M  V30 329 N 15.394557 2.735850 6.245294 0
M  V30 330 H 14.227348 2.883506 3.549600 0
M  V30 331 H 17.600761 1.671300 6.697990 0
M  V30 332 H 22.255473 1.671300 3.549600 0
M  V30 333 H 23.346811 7.294133 3.549600 0
M  V30 334 N 15.420054 2.750184 6.353755 0
M  V30 335 H 23.587878 4.670750 3.549600 0
M  V30 336 H 21.021190 1.671300 4.978480 0
M  V30 337 N 15.426474 2.766987 6.359778 0
M  V30 338 N 15.417071 2.716055 6.356160 0
M  V30 339 H 15.230480 1.671300 5.999563 0
M  V30 340 H 15.587513 1.671300 6.810820 0
M  V30 341 H 15.648758 1.671300 6.899974 0
M  V30 342 N 15.470364 2.755751 6.425891 0
M  V30 343 N 15.483525 2.969536 6.327430 0
M  V30 344 H 16.211022 1.671300 8.142315 0
M  V30 345 H 16.143952 1.671300 8.045809 0
M  V30 346 N 16.442117 3.005562 8.572106 0
M  V30 347 N 16.431561 2.973142 8.566798 0
M  V30 348 N 16.328519 2.834609 8.407130 0
M  V30 349 N 17.163064 4.588392 10.205445 0
M  V30 350 N 17.653512 5.243050 10.623115 0
M  V30 351 N 17.610929 5.153416 10.577756 0
M  V30 352 N 17.165785 4.571154 10.201973 0
M  V30 353 N 16.606099 3.342102 8.944636 0
M  V30 354 N 17.170802 4.479095 10.170693 0
M  V30 355 N 17.182457 4.500390 10.190374 0
M  V30 356 H 24.709060 6.375754 3.549600 0
M  V30 357 H 20.959260 1.671300 5.127380 0
M  V30 358 H 16.699144 1.671300 9.264367 0
M  V30 359 H 16.874310 1.671300 9.542104 0
M  V30 360 N 17.193179 3.481782 10.149882 0
M  V30 361 H 18.302964 1.671300 10.404737 0
M  V30 362 H 20.419311 1.671300 7.825746 0
M  V30 363 H 17.694841 1.671300 10.746144 0
M  V30 364 H 17.132687 1.671300 10.121792 0
M  V30 365 H 21.552295 1.671300 10.031192 0
M  V30 366 H 21.549914 1.671300 10.032557 0
M  V30 367 H 26.145900 1.671300 3.549600 0
M  V30 368 H 26.145900 1.671300 3.982133 0
M  V30 369 H 21.628076 1.671300 10.022693 0
M  V30 370 H 26.145900 1.671300 9.480132 0
M  V30 371 H 21.637836 1.671300 10.027105 0
M  V30 372 H 22.731448 1.671300 12.131918 0
M  V30 373 H 26.145900 2.701873 12.829710 0
M  V30 374 H 26.145900 6.217601 10.073882 0
M  V30 375 H 25.285836 1.671300 13.258284 0
M  V30 376 H 26.145900 2.302464 13.077614 0
M  V30 377 H 25.518544 1.671300 13.315396 0
M  V30 378 H 26.145900 1.671300 13.285964 0
M  V30 379 H 19.671027 1.671300 12.427796 0
M  V30 380 N 18.860253 4.516529 12.734877 0
M  V30 381 H 18.356209 1.671300 12.236776 0
M  V30 382 N 18.404996 5.239790 12.316885 0
M  V30 383 H 18.905914 1.671300 12.843153 0
M  V30 384 N 18.893370 4.659925 12.710192 0
M  V30 385 N 18.407985 5.155867 12.324324 0
M  V30 386 N 18.849509 3.344075 12.795542 0
M  V30 387 H 19.136711 1.671300 13.366223 0
M  V30 388 H 19.370599 1.671300 13.740504 0
M  V30 389 N 18.910512 4.420806 12.821662 0
M  V30 390 N 18.918048 4.583788 12.764358 0
M  V30 391 H 21.928710 1.671300 14.821110 0
M  V30 392 N 19.698881 2.883970 14.490767 0
M  V30 393 H 26.145900 6.081470 13.229427 0
M  V30 394 H 19.898903 1.671300 14.885383 0
M  V30 395 H 19.828995 1.671300 14.785133 0
M  V30 396 N 19.677593 2.912908 14.457668 0
M  V30 397 N 19.626215 2.930762 14.382403 0
M  V30 398 N 20.598595 3.451547 16.648156 0
M  V30 399 N 20.396165 4.689448 16.190524 0
M  V30 400 N 20.612147 3.348111 16.638259 0
M  V30 401 N 20.676781 3.225852 16.679486 0
M  V30 402 N 20.613623 2.883752 16.623571 0
M  V30 403 N 21.487768 3.654662 16.371973 0
M  V30 404 N 24.329079 6.634055 15.304152 0
M  V30 405 N 20.597098 2.851434 16.584053 0
M  V30 406 N 20.600766 2.789116 16.556150 0
M  V30 407 N 20.671800 2.806330 16.661785 0
M  V30 408 N 20.677646 2.809684 16.666002 0
M  V30 409 H 20.504233 1.671300 16.202421 0
M  V30 410 N 24.329079 6.634055 15.304152 0
M  V30 411 H 20.419329 1.671300 16.080110 0
M  V30 412 N 20.679925 2.797924 16.670120 0
M  V30 413 N 20.675371 2.801076 16.665920 0
M  V30 414 N 20.678243 2.791781 16.668272 0
M  V30 415 N 20.679307 2.799425 16.669594 0
M  V30 416 H 26.145900 1.671300 17.211469 0
M  V30 417 N 20.705839 2.767549 16.711483 0
M  V30 418 H 20.890594 1.671300 17.097089 0
M  V30 419 H 20.912743 1.671300 17.129765 0
M  V30 420 H 22.516584 2.860510 20.913200 0
M  V30 421 H 26.145900 1.671300 20.913200 0
M  V30 422 H 26.145900 6.276556 20.913200 0
M  V30 423 H 22.545245 1.671300 20.913200 0
M  V30 424 H 22.447119 3.129228 20.913200 0
M  V30 425 H 11.097900 5.839453 3.549600 0
M  V30 426 H 11.097900 7.335285 7.772616 0
M  V30 427 H 11.097900 1.671300 3.549600 0
M  V30 428 H 11.097900 7.333070 7.773953 0
M  V30 429 H 11.097900 1.671300 5.872549 0
M  V30 430 H 11.097900 7.325714 7.798219 0
M  V30 431 H 11.097900 1.671300 9.417255 0
M  V30 432 H 14.221975 1.671300 8.130790 0
M  V30 433 H 11.097900 4.836279 9.274158 0
M  V30 434 N 17.115626 4.650169 10.232324 0
M  V30 435 H 11.097900 1.671300 9.692273 0
M  V30 436 H 11.097900 1.671300 9.808356 0
M  V30 437 H 16.273515 1.671300 10.595734 0
M  V30 438 H 11.097900 4.510969 12.099128 0
M  V30 439 H 13.404982 1.671300 10.830432 0
M  V30 440 H 14.514977 1.671300 12.927278 0
M  V30 441 H 14.499707 1.671300 12.929043 0
M  V30 442 H 11.097900 5.988289 15.060055 0
M  V30 443 H 11.097900 6.021025 15.087245 0
M  V30 444 H 11.097900 6.081893 15.090051 0
M  V30 445 H 14.489067 1.671300 12.935138 0
M  V30 446 H 11.097900 1.671300 13.321873 0
M  V30 447 H 11.097900 6.007911 15.139093 0
M  V30 448 H 11.097900 1.671300 17.380487 0
M  V30 449 H 11.097900 1.671300 20.913200 0
M  V30 450 H 11.097900 7.268984 17.766329 0
M  V30 451 H 12.510209 1.671300 20.913200 0
M  V30 452 H 15.073779 1.671300 17.936446 0
M  V30 453 H 14.536634 1.671300 12.936709 0
M  V30 454 H 15.644590 1.671300 15.138044 0
M  V30 455 H 15.011222 1.749081 17.969930 0
M  V30 456 H 11.097900 6.711671 19.723891 0
M  V30 457 H 11.097900 6.437191 20.153925 0
M  V30 458 H 11.097900 4.928938 20.913200 0
M  V30 459 H 17.707090 1.671300 12.596061 0
M  V30 460 H 15.083627 1.671300 17.929974 0
M  V30 461 H 18.400065 1.671300 16.279990 0
M  V30 462 H 17.375220 1.671300 20.913200 0
M  V30 END ATOM
M  V30 BEGIN BOND
M  V30 1 1 1 4
M  V30 2 1 2 10
M  V30 3 1 3 5
M  V30 4 1 3 11
M  V30 5 1 4 9
M  V30 6 1 5 18
M  V30 7 1 5 14
M  V30 8 1 6 10
M  V30 9 1 6 16
M  V30 10 1 7 19
M  V30 11 1 8 13
M  V30 12 1 9 14
M  V30 13 1 9 18
M  V30 14 1 10 12
M  V30 15 1 10 15
M  V30 16 1 12 17
M  V30 17 1 13 14
M  V30 18 1 18 19
M  V30 19 1 16 21
M  V30 20 1 15 22
M  V30 21 1 20 21
M  V30 22 1 20 8
M  V30 23 1 21 6
M  V30 24 1 22 11
M  V30 25 1 22 23
M  V30 26 1 3 23
M  V30 27 1 24 33
M  V30 28 1 24 23
M  V30 29 1 25 26
M  V30 30 1 25 28
M  V30 31 1 26 28
M  V30 32 1 26 27
M  V30 33 1 27 14
M  V30 34 1 13 30
M  V30 35 1 28 32
M  V30 36 1 20 29
M  V30 37 1 29 30
M  V30 38 1 29 31
M  V30 39 1 30 32
M  V30 40 1 31 32
M  V30 41 1 5 33
M  V30 42 1 34 36
M  V30 43 1 34 35
M  V30 44 1 26 39
M  V30 45 1 27 38
M  V30 46 1 24 42
M  V30 47 1 35 39
M  V30 48 1 35 36
M  V30 49 1 36 38
M  V30 50 1 37 42
M  V30 51 1 37 41
M  V30 52 1 37 40
M  V30 53 1 33 43
M  V30 54 1 38 39
M  V30 55 1 40 46
M  V30 56 1 41 44
M  V30 57 1 41 46
M  V30 58 1 42 43
M  V30 59 1 43 44
M  V30 60 1 44 45
M  V30 61 1 45 46
M  V30 62 1 28 62
M  V30 63 1 34 51
M  V30 64 1 47 52
M  V30 65 1 47 49
M  V30 66 1 47 53
M  V30 67 1 48 45
M  V30 68 1 48 50
M  V30 69 1 48 46
M  V30 70 1 49 58
M  V30 71 1 50 54
M  V30 72 1 51 54
M  V30 73 1 51 52
M  V30 74 1 52 53
M  V30 75 1 53 54
M  V30 76 1 35 55
M  V30 77 1 55 56
M  V30 78 1 55 59
M  V30 79 1 39 60
M  V30 80 1 56 58
M  V30 81 1 56 59
M  V30 82 1 57 62
M  V30 83 1 57 58
M  V30 84 1 57 61
M  V30 85 1 59 60
M  V30 86 1 60 61
M  V30 87 1 61 62
M  V30 88 1 32 62
M  V30 89 1 31 66
M  V30 90 1 40 69
M  V30 91 1 63 48
M  V30 92 1 63 50
M  V30 93 1 63 69
M  V30 94 1 49 64
M  V30 95 1 58 65
M  V30 96 1 64 68
M  V30 97 1 64 65
M  V30 98 1 65 67
M  V30 99 1 66 68
M  V30 100 1 57 67
M  V30 101 1 67 68
M  V30 102 1 69 79
M  V30 103 1 69 70
M  V30 104 1 37 79
M  V30 105 1 70 75
M  V30 106 1 70 82
M  V30 107 1 71 83
M  V30 108 1 71 73
M  V30 109 1 71 75
M  V30 110 1 42 22
M  V30 111 1 72 76
M  V30 112 1 72 80
M  V30 113 1 72 84
M  V30 114 1 73 81
M  V30 115 1 73 82
M  V30 116 1 74 84
M  V30 117 1 74 10
M  V30 118 1 74 81
M  V30 119 1 66 80
M  V30 120 1 21 29
M  V30 121 1 75 78
M  V30 122 1 76 78
M  V30 123 1 76 77
M  V30 124 1 77 78
M  V30 125 1 77 80
M  V30 126 1 79 82
M  V30 127 1 81 83
M  V30 128 1 83 84
M  V30 129 1 53 85
M  V30 130 1 80 68
M  V30 131 1 63 86
M  V30 132 1 78 89
M  V30 133 1 64 88
M  V30 134 1 47 87
M  V30 135 1 75 89
M  V30 136 1 85 86
M  V30 137 1 85 54
M  V30 138 1 70 86
M  V30 139 1 87 89
M  V30 140 1 87 88
M  V30 141 1 88 77
M  V30 142 1 90 94
M  V30 143 1 90 100
M  V30 144 1 86 92
M  V30 145 1 91 73
M  V30 146 1 91 100
M  V30 147 1 87 97
M  V30 148 1 85 94
M  V30 149 1 92 82
M  V30 150 1 92 101
M  V30 151 1 93 96
M  V30 152 1 93 97
M  V30 153 1 93 89
M  V30 154 1 94 101
M  V30 155 1 52 95
M  V30 156 1 95 99
M  V30 157 1 96 99
M  V30 158 1 96 97
M  V30 159 1 71 98
M  V30 160 1 98 99
M  V30 161 1 100 101
M  V30 162 1 102 104
M  V30 163 1 102 95
M  V30 164 1 102 107
M  V30 165 1 103 91
M  V30 166 1 103 106
M  V30 167 1 105 108
M  V30 168 1 105 106
M  V30 169 1 90 108
M  V30 170 1 98 107
M  V30 171 1 106 109
M  V30 172 1 107 99
M  V30 173 1 108 109
M  V30 174 1 100 109
M  V30 175 1 102 115
M  V30 176 1 51 110
M  V30 177 1 110 113
M  V30 178 1 111 94
M  V30 179 1 111 113
M  V30 180 1 111 112
M  V30 181 1 112 113
M  V30 182 1 112 108
M  V30 183 1 114 115
M  V30 184 1 104 115
M  V30 185 1 113 116
M  V30 186 1 110 116
M  V30 187 1 116 118
M  V30 188 1 117 112
M  V30 189 1 117 118
M  V30 190 1 117 105
M  V30 191 1 118 119
M  V30 192 1 119 114
M  V30 193 1 120 103
M  V30 194 1 120 122
M  V30 195 1 121 127
M  V30 196 1 121 124
M  V30 197 1 121 126
M  V30 198 1 119 124
M  V30 199 1 118 129
M  V30 200 1 122 123
M  V30 201 1 122 125
M  V30 202 1 123 106
M  V30 203 1 123 117
M  V30 204 1 125 126
M  V30 205 1 126 128
M  V30 206 1 127 129
M  V30 207 1 127 128
M  V30 208 1 128 129
M  V30 209 1 120 130
M  V30 210 1 124 132
M  V30 211 1 115 133
M  V30 212 1 130 134
M  V30 213 1 131 133
M  V30 214 1 131 132
M  V30 215 1 125 134
M  V30 216 1 132 133
M  V30 217 1 122 134
M  V30 218 1 135 145
M  V30 219 1 135 138
M  V30 220 1 135 148
M  V30 221 1 136 133
M  V30 222 1 136 143
M  V30 223 1 136 144
M  V30 224 1 130 140
M  V30 225 1 83 148
M  V30 226 1 137 145
M  V30 227 1 137 131
M  V30 228 1 137 138
M  V30 229 1 138 144
M  V30 230 1 107 143
M  V30 231 1 139 140
M  V30 232 1 139 142
M  V30 233 1 139 147
M  V30 234 1 115 141
M  V30 235 1 102 141
M  V30 236 1 140 149
M  V30 237 1 81 146
M  V30 238 1 142 147
M  V30 239 1 142 145
M  V30 240 1 143 144
M  V30 241 1 146 148
M  V30 242 1 146 149
M  V30 243 1 147 149
M  V30 244 1 147 148
M  V30 245 1 139 156
M  V30 246 1 121 151
M  V30 247 1 150 134
M  V30 248 1 150 126
M  V30 249 1 150 155
M  V30 250 1 142 153
M  V30 251 1 140 155
M  V30 252 1 145 154
M  V30 253 1 132 152
M  V30 254 1 137 152
M  V30 255 1 151 154
M  V30 256 1 151 152
M  V30 257 1 153 156
M  V30 258 1 153 154
M  V30 259 1 155 156
M  V30 260 1 157 160
M  V30 261 1 157 151
M  V30 262 1 157 162
M  V30 263 1 155 165
M  V30 264 1 128 159
M  V30 265 1 156 166
M  V30 266 1 153 163
M  V30 267 1 127 158
M  V30 268 1 154 162
M  V30 269 1 158 160
M  V30 270 1 159 164
M  V30 271 1 160 161
M  V30 272 1 161 163
M  V30 273 1 162 163
M  V30 274 1 150 164
M  V30 275 1 164 165
M  V30 276 1 165 166
M  V30 277 1 167 179
M  V30 278 1 167 169
M  V30 279 1 168 174
M  V30 280 1 168 172
M  V30 281 1 168 175
M  V30 282 1 169 170
M  V30 283 1 170 177
M  V30 284 1 170 179
M  V30 285 1 171 173
M  V30 286 1 171 174
M  V30 287 1 173 176
M  V30 288 1 174 175
M  V30 289 1 175 176
M  V30 290 1 177 178
M  V30 291 1 178 179
M  V30 292 1 174 185
M  V30 293 1 180 190
M  V30 294 1 172 182
M  V30 295 1 181 179
M  V30 296 1 181 183
M  V30 297 1 182 188
M  V30 298 1 182 168
M  V30 299 1 183 166
M  V30 300 1 183 187
M  V30 301 1 184 186
M  V30 302 1 184 163
M  V30 303 1 184 185
M  V30 304 1 178 188
M  V30 305 1 185 189
M  V30 306 1 186 189
M  V30 307 1 186 161
M  V30 308 1 147 188
M  V30 309 1 171 190
M  V30 310 1 189 190
M  V30 311 1 160 196
M  V30 312 1 191 192
M  V30 313 1 191 200
M  V30 314 1 191 194
M  V30 315 1 159 200
M  V30 316 1 192 183
M  V30 317 1 192 165
M  V30 318 1 193 197
M  V30 319 1 193 195
M  V30 320 1 193 199
M  V30 321 1 158 195
M  V30 322 1 194 183
M  V30 323 1 180 197
M  V30 324 1 195 196
M  V30 325 1 196 186
M  V30 326 1 197 198
M  V30 327 1 190 198
M  V30 328 1 189 199
M  V30 329 1 198 199
M  V30 330 1 164 200
M  V30 331 1 201 200
M  V30 332 1 201 203
M  V30 333 1 201 191
M  V30 334 1 129 203
M  V30 335 1 202 207
M  V30 336 1 202 195
M  V30 337 1 202 193
M  V30 338 1 203 207
M  V30 339 1 204 191
M  V30 340 1 205 197
M  V30 341 1 206 197
M  V30 342 1 206 207
M  V30 343 1 201 211
M  V30 344 1 203 210
M  V30 345 1 208 212
M  V30 346 1 208 210
M  V30 347 1 208 207
M  V30 348 1 209 213
M  V30 349 1 209 210
M  V30 350 1 209 212
M  V30 351 1 206 212
M  V30 352 1 211 214
M  V30 353 1 211 213
M  V30 354 1 192 214
M  V30 355 1 213 181
M  V30 356 1 181 214
M  V30 357 1 215 217
M  V30 358 1 215 212
M  V30 359 1 215 198
M  V30 360 1 190 218
M  V30 361 1 209 216
M  V30 362 1 216 213
M  V30 363 1 216 217
M  V30 364 1 217 219
M  V30 365 1 167 219
M  V30 366 1 218 197
M  V30 367 1 173 219
M  V30 368 1 188 221
M  V30 369 1 188 223
M  V30 370 1 220 225
M  V30 371 1 220 224
M  V30 372 1 222 223
M  V30 373 1 219 225
M  V30 374 1 225 227
M  V30 375 1 226 227
M  V30 376 1 20 229
M  V30 377 1 16 229
M  V30 378 1 228 230
M  V30 379 1 228 4
M  V30 380 1 2 230
M  V30 381 1 29 229
M  V30 382 1 1 230
M  V30 383 1 231 38
M  V30 384 1 231 234
M  V30 385 1 231 233
M  V30 386 1 228 232
M  V30 387 1 232 233
M  V30 388 1 232 234
M  V30 389 1 234 9
M  V30 390 1 233 237
M  V30 391 1 235 231
M  V30 392 1 235 236
M  V30 393 1 235 36
M  V30 394 1 236 55
M  V30 395 1 238 239
M  V30 396 1 238 237
M  V30 397 1 236 241
M  V30 398 1 239 242
M  V30 399 1 56 240
M  V30 400 1 240 243
M  V30 401 1 241 243
M  V30 402 1 241 242
M  V30 403 1 242 243
M  V30 404 1 238 246
M  V30 405 1 240 65
M  V30 406 1 239 245
M  V30 407 1 244 245
M  V30 408 1 244 246
M  V30 409 1 245 246
M  V30 410 1 247 252
M  V30 411 1 247 248
M  V30 412 1 247 251
M  V30 413 1 72 248
M  V30 414 1 244 251
M  V30 415 1 232 250
M  V30 416 1 246 250
M  V30 417 1 248 252
M  V30 418 1 84 252
M  V30 419 1 230 250
M  V30 420 1 249 252
M  V30 421 1 249 251
M  V30 422 1 249 74
M  V30 423 1 245 256
M  V30 424 1 253 242
M  V30 425 1 253 255
M  V30 426 1 253 254
M  V30 427 1 76 248
M  V30 428 1 88 254
M  V30 429 1 254 243
M  V30 430 1 255 247
M  V30 431 1 255 256
M  V30 432 1 256 251
M  V30 433 1 254 258
M  V30 434 1 257 252
M  V30 435 1 257 260
M  V30 436 1 97 258
M  V30 437 1 253 259
M  V30 438 1 259 260
M  V30 439 1 260 255
M  V30 440 1 257 267
M  V30 441 1 257 269
M  V30 442 1 258 264
M  V30 443 1 261 96
M  V30 444 1 261 264
M  V30 445 1 262 265
M  V30 446 1 262 269
M  V30 447 1 259 263
M  V30 448 1 263 265
M  V30 449 1 266 268
M  V30 450 1 266 260
M  V30 451 1 266 267
M  V30 452 1 267 268
M  V30 453 1 268 269
M  V30 454 1 241 271
M  V30 455 1 270 264
M  V30 456 1 270 271
M  V30 457 1 272 270
M  V30 458 1 272 271
M  V30 459 1 272 273
M  V30 460 1 265 273
M  V30 461 1 274 261
M  V30 462 1 274 278
M  V30 463 1 275 279
M  V30 464 1 275 276
M  V30 465 1 275 282
M  V30 466 1 273 277
M  V30 467 1 276 279
M  V30 468 1 276 272
M  V30 469 1 277 280
M  V30 470 1 278 281
M  V30 471 1 279 281
M  V30 472 1 280 282
M  V30 473 1 280 283
M  V30 474 1 281 283
M  V30 475 1 282 283
M  V30 476 1 284 286
M  V30 477 1 284 262
M  V30 478 1 284 285
M  V30 479 1 143 274
M  V30 480 1 136 278
M  V30 481 1 277 286
M  V30 482 1 285 286
M  V30 483 1 135 287
M  V30 484 1 138 288
M  V30 485 1 287 148
M  V30 486 1 287 288
M  V30 487 1 269 284
M  V30 488 1 288 285
M  V30 489 1 286 289
M  V30 490 1 281 290
M  V30 491 1 280 289
M  V30 492 1 152 290
M  V30 493 1 289 288
M  V30 494 1 283 290
M  V30 495 1 157 291
M  V30 496 1 282 292
M  V30 497 1 291 290
M  V30 498 1 292 300
M  V30 499 1 292 296
M  V30 500 1 293 299
M  V30 501 1 293 294
M  V30 502 1 293 298
M  V30 503 1 289 297
M  V30 504 1 294 295
M  V30 505 1 294 287
M  V30 506 1 288 295
M  V30 507 1 287 298
M  V30 508 1 295 297
M  V30 509 1 296 297
M  V30 510 1 296 299
M  V30 511 1 299 300
M  V30 512 1 301 221
M  V30 513 1 301 224
M  V30 514 1 302 182
M  V30 515 1 302 174
M  V30 516 1 302 175
M  V30 517 1 301 304
M  V30 518 1 303 304
M  V30 519 1 303 298
M  V30 520 1 303 307
M  V30 521 1 303 306
M  V30 522 1 291 196
M  V30 523 1 305 306
M  V30 524 1 305 299
M  V30 525 1 305 307
M  V30 526 1 300 306
M  V30 527 1 293 307
M  V30 528 1 308 309
M  V30 529 1 308 310
M  V30 530 1 308 306
M  V30 531 1 279 309
M  V30 532 1 309 202
M  V30 533 1 292 310
M  V30 534 1 275 310
M  V30 535 1 215 311
M  V30 536 1 304 311
M  V30 537 1 311 308
M  V30 538 1 309 208
M  V30 539 1 301 315
M  V30 540 1 312 225
M  V30 541 1 312 217
M  V30 542 1 312 313
M  V30 543 1 311 313
M  V30 544 1 313 314
M  V30 545 1 220 315
M  V30 546 1 304 314
M  V30 547 1 314 315
M  V30 548 1 316 7
M  V30 549 1 316 317
M  V30 550 1 17 317
M  V30 551 1 317 12
M  V30 552 1 318 321
M  V30 553 1 318 319
M  V30 554 1 318 324
M  V30 555 1 316 322
M  V30 556 1 18 320
M  V30 557 1 19 323
M  V30 558 1 319 321
M  V30 559 1 320 321
M  V30 560 1 322 325
M  V30 561 1 322 323
M  V30 562 1 323 324
M  V30 563 1 324 325
M  V30 564 1 326 328
M  V30 565 1 326 327
M  V30 566 1 327 330
M  V30 567 1 327 328
M  V30 568 1 328 329
M  V30 569 1 321 329
M  V30 570 1 320 330
M  V30 571 1 329 330
M  V30 572 1 331 341
M  V30 573 1 331 336
M  V30 574 1 332 336
M  V30 575 1 332 326
M  V30 576 1 332 335
M  V30 577 1 48 333
M  V30 578 1 333 335
M  V30 579 1 334 337
M  V30 580 1 334 329
M  V30 581 1 334 338
M  V30 582 1 335 336
M  V30 583 1 328 339
M  V30 584 1 318 343
M  V30 585 1 337 343
M  V30 586 1 337 342
M  V30 587 1 338 339
M  V30 588 1 338 340
M  V30 589 1 339 340
M  V30 590 1 340 341
M  V30 591 1 341 342
M  V30 592 1 342 343
M  V30 593 1 331 344
M  V30 594 1 342 348
M  V30 595 1 341 345
M  V30 596 1 333 63
M  V30 597 1 324 343
M  V30 598 1 344 345
M  V30 599 1 344 347
M  V30 600 1 325 346
M  V30 601 1 345 348
M  V30 602 1 346 347
M  V30 603 1 347 348
M  V30 604 1 349 74
M  V30 605 1 349 353
M  V30 606 1 349 352
M  V30 607 1 73 350
M  V30 608 1 82 351
M  V30 609 1 322 317
M  V30 610 1 350 351
M  V30 611 1 350 81
M  V30 612 1 351 355
M  V30 613 1 346 353
M  V30 614 1 352 354
M  V30 615 1 352 355
M  V30 616 1 353 354
M  V30 617 1 354 355
M  V30 618 1 344 358
M  V30 619 1 354 358
M  V30 620 1 92 356
M  V30 621 1 335 356
M  V30 622 1 336 357
M  V30 623 1 356 357
M  V30 624 1 357 359
M  V30 625 1 355 360
M  V30 626 1 347 353
M  V30 627 1 358 359
M  V30 628 1 359 360
M  V30 629 1 360 351
M  V30 630 1 360 364
M  V30 631 1 359 364
M  V30 632 1 361 363
M  V30 633 1 361 362
M  V30 634 1 356 101
M  V30 635 1 362 357
M  V30 636 1 363 364
M  V30 637 1 363 350
M  V30 638 1 365 366
M  V30 639 1 366 361
M  V30 640 1 367 111
M  V30 641 1 367 368
M  V30 642 1 367 332
M  V30 643 1 112 368
M  V30 644 1 365 369
M  V30 645 1 370 368
M  V30 646 1 370 123
M  V30 647 1 371 369
M  V30 648 1 372 371
M  V30 649 1 372 375
M  V30 650 1 122 374
M  V30 651 1 370 378
M  V30 652 1 373 376
M  V30 653 1 373 374
M  V30 654 1 373 375
M  V30 655 1 375 377
M  V30 656 1 376 378
M  V30 657 1 376 377
M  V30 658 1 377 378
M  V30 659 1 379 366
M  V30 660 1 379 372
M  V30 661 1 134 374
M  V30 662 1 379 383
M  V30 663 1 380 382
M  V30 664 1 380 386
M  V30 665 1 380 384
M  V30 666 1 149 384
M  V30 667 1 363 381
M  V30 668 1 381 385
M  V30 669 1 381 383
M  V30 670 1 382 146
M  V30 671 1 382 385
M  V30 672 1 383 386
M  V30 673 1 140 384
M  V30 674 1 385 386
M  V30 675 1 150 373
M  V30 676 1 375 388
M  V30 677 1 384 390
M  V30 678 1 155 390
M  V30 679 1 380 389
M  V30 680 1 383 387
M  V30 681 1 386 387
M  V30 682 1 387 388
M  V30 683 1 388 389
M  V30 684 1 389 390
M  V30 685 1 391 394
M  V30 686 1 391 377
M  V30 687 1 390 396
M  V30 688 1 164 393
M  V30 689 1 392 394
M  V30 690 1 392 396
M  V30 691 1 388 395
M  V30 692 1 389 397
M  V30 693 1 376 393
M  V30 694 1 394 395
M  V30 695 1 395 397
M  V30 696 1 396 397
M  V30 697 1 222 399
M  V30 698 1 398 226
M  V30 699 1 398 399
M  V30 700 1 398 400
M  V30 701 1 399 400
M  V30 702 1 227 401
M  V30 703 1 400 401
M  V30 704 1 392 406
M  V30 705 1 400 402
M  V30 706 1 402 405
M  V30 707 1 402 407
M  V30 708 1 223 399
M  V30 709 1 403 408
M  V30 710 1 192 404
M  V30 711 1 405 396
M  V30 712 1 405 406
M  V30 713 1 406 407
M  V30 714 1 401 408
M  V30 715 1 407 408
M  V30 716 1 200 393
M  V30 717 1 191 410
M  V30 718 1 391 409
M  V30 719 1 406 411
M  V30 720 1 409 411
M  V30 721 1 409 414
M  V30 722 1 410 192
M  V30 723 1 403 412
M  V30 724 1 394 411
M  V30 725 1 407 413
M  V30 726 1 412 414
M  V30 727 1 412 415
M  V30 728 1 413 414
M  V30 729 1 413 415
M  V30 730 1 415 408
M  V30 731 1 201 416
M  V30 732 1 416 419
M  V30 733 1 416 378
M  V30 734 1 409 418
M  V30 735 1 417 419
M  V30 736 1 417 412
M  V30 737 1 414 418
M  V30 738 1 418 419
M  V30 739 1 420 423
M  V30 740 1 420 422
M  V30 741 1 420 417
M  V30 742 1 416 421
M  V30 743 1 419 423
M  V30 744 1 421 423
M  V30 745 1 421 422
M  V30 746 1 211 422
M  V30 747 1 415 424
M  V30 748 1 422 216
M  V30 749 1 312 424
M  V30 750 1 424 420
M  V30 751 1 425 426
M  V30 752 1 425 234
M  V30 753 1 425 330
M  V30 754 1 426 250
M  V30 755 1 427 327
M  V30 756 1 427 429
M  V30 757 1 427 425
M  V30 758 1 428 426
M  V30 759 1 429 339
M  V30 760 1 429 431
M  V30 761 1 430 428
M  V30 762 1 430 433
M  V30 763 1 340 432
M  V30 764 1 431 433
M  V30 765 1 431 432
M  V30 766 1 246 430
M  V30 767 1 245 433
M  V30 768 1 432 345
M  V30 769 1 434 249
M  V30 770 1 434 251
M  V30 771 1 434 349
M  V30 772 1 431 435
M  V30 773 1 435 256
M  V30 774 1 435 358
M  V30 775 1 434 352
M  V30 776 1 266 438
M  V30 777 1 364 437
M  V30 778 1 436 438
M  V30 779 1 436 435
M  V30 780 1 436 439
M  V30 781 1 437 439
M  V30 782 1 440 441
M  V30 783 1 440 437
M  V30 784 1 441 439
M  V30 785 1 442 443
M  V30 786 1 442 438
M  V30 787 1 268 444
M  V30 788 1 443 444
M  V30 789 1 445 441
M  V30 790 1 447 443
M  V30 791 1 447 448
M  V30 792 1 447 450
M  V30 793 1 448 449
M  V30 794 1 449 458
M  V30 795 1 449 451
M  V30 796 1 450 456
M  V30 797 1 451 458
M  V30 798 1 451 452
M  V30 799 1 440 453
M  V30 800 1 452 454
M  V30 801 1 452 455
M  V30 802 1 455 456
M  V30 803 1 455 457
M  V30 804 1 456 457
M  V30 805 1 457 458
M  V30 806 1 453 459
M  V30 807 1 454 459
M  V30 808 1 286 450
M  V30 809 1 284 444
M  V30 810 1 385 295
M  V30 811 1 459 381
M  V30 812 1 294 382
M  V30 813 1 456 297
M  V30 814 1 460 452
M  V30 815 1 460 387
M  V30 816 1 460 455
M  V30 817 1 296 457
M  V30 818 1 461 460
M  V30 819 1 461 395
M  V30 820 1 411 461
M  V30 821 1 462 308
M  V30 822 1 462 451
M  V30 823 1 462 418
M  V30 824 1 458 310
M  V30 825 1 423 462
M  V30 826 1 424 313
M  V30 END BOND
M  V30 END CTAB
M  END
