	28

C	4.861000	8.152000	12.629000
C	5.455000	8.257000	13.893000
C	4.915000	9.172000	14.820000
C	3.783000	9.954000	14.469000
C	3.311000	9.732000	13.247000
C	3.783000	8.919000	12.225000
C	3.169000	10.903000	15.519000
C	3.169000	8.824000	10.903000
C	3.783000	9.874000	9.954000
C	4.915000	9.523000	9.172000
C	5.455000	10.450000	8.257000
C	4.861000	11.714000	8.152000
C	3.783000	12.118000	8.919000
C	3.311000	11.096000	9.732000
C	3.169000	13.440000	8.824000
C	3.783000	14.389000	9.874000
C	4.915000	15.171000	9.523000
C	5.455000	16.086000	10.450000
C	4.861000	16.191000	11.714000
C	3.783000	15.424000	12.118000
C	3.311000	14.611000	11.096000
C	3.169000	15.519000	13.440000
C	3.783000	14.469000	14.389000
C	4.915000	14.820000	15.171000
C	5.455000	13.893000	16.086000
C	4.861000	12.629000	16.191000
C	3.783000	12.225000	15.424000
C	3.311000	13.247000	14.611000
