
     RDKit          3D

  0  0  0  0  0  0  0  0  0  0999 V3000
M  V30 BEGIN CTAB
M  V30 COUNTS 126 191 0 0 0
M  V30 BEGIN ATOM
M  V30 1 H 3.809215 7.336800 11.519524 0
M  V30 2 H 6.000500 10.432980 11.550624 0
M  V30 3 H 6.000500 7.336800 10.322720 0
M  V30 4 H 6.000500 10.966570 12.563653 0
M  V30 5 H 5.981076 10.914085 12.649122 0
M  V30 6 H 3.009765 7.336800 14.342614 0
M  V30 7 H 2.876486 7.336800 14.008339 0
M  V30 8 H 6.000500 10.936699 12.638116 0
M  V30 9 H 6.000500 10.937611 12.637691 0
M  V30 10 H 5.045288 7.336800 10.307799 0
M  V30 11 N 5.035309 8.708189 10.851518 0
M  V30 12 H 6.000500 7.336800 16.191414 0
M  V30 13 H 2.982435 7.336800 14.433318 0
M  V30 14 H 2.852100 7.336800 14.566222 0
M  V30 15 H 2.852100 7.365599 14.576475 0
M  V30 16 H 2.852100 7.336800 17.810100 0
M  V30 17 H 6.000500 7.336800 17.810100 0
M  V30 18 H 6.000500 10.003904 17.810100 0
M  V30 19 N 5.035309 10.851518 15.634811 0
M  V30 20 H 6.000500 11.074836 12.686544 0
M  V30 21 H 2.852100 8.266370 16.583321 0
M  V30 22 H 2.852100 7.770981 17.810100 0
M  V30 23 H 5.051138 9.989075 17.810100 0
M  V30 24 N 4.986774 10.863259 15.484504 0
M  V30 25 H 6.000500 11.550624 13.910020 0
M  V30 26 H 6.000500 11.573069 13.796568 0
M  V30 27 H 6.000500 12.039653 12.511266 0
M  V30 28 H 2.852100 11.272004 13.866800 0
M  V30 29 H 6.000500 12.031208 12.707108 0
M  V30 30 N 3.071775 11.567386 13.728288 0
M  V30 31 N 3.178561 11.580511 13.778870 0
M  V30 32 H 2.852100 10.631874 11.574046 0
M  V30 33 N 3.178561 10.564130 11.580511 0
M  V30 34 N 3.071775 10.614712 11.567386 0
M  V30 35 H 6.000500 11.635892 12.031208 0
M  V30 36 H 2.852100 7.336800 13.997077 0
M  V30 37 H 2.852100 12.171500 12.171500 0
M  V30 38 H 6.000500 11.831734 12.039653 0
M  V30 39 H 2.852100 11.574046 13.711126 0
M  V30 40 H 6.000500 12.171500 12.171500 0
M  V30 41 H 2.852100 7.336800 11.964054 0
M  V30 42 N 4.986774 8.858496 10.863259 0
M  V30 43 H 6.000500 10.546432 11.573069 0
M  V30 44 H 3.090485 11.911105 17.810100 0
M  V30 45 H 2.852100 12.021823 17.810100 0
M  V30 46 H 2.852100 7.759679 8.266370 0
M  V30 47 H 2.852100 7.336800 8.095606 0
M  V30 48 H 2.852100 10.476200 11.272004 0
M  V30 49 H 2.852100 9.766525 7.365599 0
M  V30 50 H 6.000500 11.656456 11.074836 0
M  V30 51 H 2.852100 7.336800 7.336800 0
M  V30 52 H 6.000500 7.336800 7.336800 0
M  V30 53 H 6.000500 8.151586 7.336800 0
M  V30 54 H 6.000500 11.705309 10.937611 0
M  V30 55 H 6.000500 11.704884 10.936699 0
M  V30 56 H 2.852100 9.776778 7.336800 0
M  V30 57 H 2.982435 9.909682 7.336800 0
M  V30 58 H 5.981076 11.693878 10.914085 0
M  V30 59 H 3.009765 10.000386 7.336800 0
M  V30 60 H 3.809215 12.823476 7.336800 0
M  V30 61 H 5.045288 14.035201 7.336800 0
M  V30 62 H 6.000500 11.779347 10.966570 0
M  V30 63 H 6.000500 14.020280 7.336800 0
M  V30 64 H 2.876486 10.334661 7.336800 0
M  V30 65 N 5.035309 13.491482 8.708189 0
M  V30 66 H 6.000500 12.792376 10.432980 0
M  V30 67 H 2.852100 12.378946 7.336800 0
M  V30 68 N 4.986774 13.479741 8.858496 0
M  V30 69 N 3.178561 12.762489 10.564130 0
M  V30 70 H 6.000500 12.311792 11.635892 0
M  V30 71 H 2.852100 10.345923 7.336800 0
M  V30 72 H 6.000500 12.769931 10.546432 0
M  V30 73 N 3.071775 12.775614 10.614712 0
M  V30 74 H 2.852100 12.768954 10.631874 0
M  V30 75 H 6.000500 12.303347 11.831734 0
M  V30 76 H 2.852100 16.247394 7.336800 0
M  V30 77 H 2.852100 16.076630 7.759679 0
M  V30 78 H 2.852100 13.070996 10.476200 0
M  V30 79 H 2.852100 16.977401 9.766525 0
M  V30 80 H 6.000500 13.268164 11.656456 0
M  V30 81 H 2.852100 17.810100 9.192112 0
M  V30 82 H 2.852100 17.810100 7.336800 0
M  V30 83 H 6.000500 17.810100 7.336800 0
M  V30 84 H 6.000500 13.405389 11.705309 0
M  V30 85 H 6.000500 17.810100 7.358092 0
M  V30 86 H 6.000500 13.406301 11.704884 0
M  V30 87 H 2.852100 17.161686 9.832132 0
M  V30 88 H 5.981076 13.428915 11.693878 0
M  V30 89 H 2.852100 17.810100 9.859514 0
M  V30 90 H 6.000500 17.810100 11.339062 0
M  V30 91 H 2.852100 17.196019 9.910525 0
M  V30 92 H 6.000500 17.810100 14.339096 0
M  V30 93 H 6.000500 13.376430 11.779347 0
M  V30 94 H 3.090485 17.810100 12.431895 0
M  V30 95 H 2.852100 17.034534 10.323384 0
M  V30 96 H 2.852100 17.810100 11.795807 0
M  V30 97 H 5.051138 17.810100 14.353925 0
M  V30 98 N 5.035309 15.634811 13.491482 0
M  V30 99 H 6.000500 13.910020 12.792376 0
M  V30 100 N 3.178561 13.778870 12.762489 0
M  V30 101 H 2.852100 17.810100 12.321177 0
M  V30 102 H 6.000500 12.707108 12.311792 0
M  V30 103 N 4.986774 15.484504 13.479741 0
M  V30 104 H 6.000500 13.796568 12.769931 0
M  V30 105 H 6.000500 12.511266 12.303347 0
M  V30 106 N 3.071775 13.728288 12.775614 0
M  V30 107 H 2.852100 13.711126 12.768954 0
M  V30 108 H 2.852100 16.583321 16.076630 0
M  V30 109 H 2.852100 17.810100 16.572019 0
M  V30 110 H 2.852100 13.866800 13.070996 0
M  V30 111 H 2.852100 14.576475 16.977401 0
M  V30 112 H 6.000500 12.686544 13.268164 0
M  V30 113 H 6.000500 16.984908 17.810100 0
M  V30 114 H 2.852100 15.150888 17.810100 0
M  V30 115 H 2.852100 14.510868 17.161686 0
M  V30 116 H 2.852100 17.810100 17.810100 0
M  V30 117 H 6.000500 17.810100 17.810100 0
M  V30 118 H 6.000500 12.638116 13.406301 0
M  V30 119 H 6.000500 12.637691 13.405389 0
M  V30 120 H 5.981076 12.649122 13.428915 0
M  V30 121 H 2.852100 14.483486 17.810100 0
M  V30 122 H 6.000500 13.003938 17.810100 0
M  V30 123 H 2.852100 14.432475 17.196019 0
M  V30 124 H 2.852100 12.547193 17.810100 0
M  V30 125 H 6.000500 12.563653 13.376430 0
M  V30 126 H 2.852100 14.019616 17.034534 0
M  V30 END ATOM
M  V30 BEGIN BOND
M  V30 1 1 1 10
M  V30 2 1 2 11
M  V30 3 1 2 4
M  V30 4 1 2 3
M  V30 5 1 3 10
M  V30 6 1 4 9
M  V30 7 1 5 8
M  V30 8 1 5 9
M  V30 9 1 6 7
M  V30 10 1 8 9
M  V30 11 1 10 11
M  V30 12 1 12 13
M  V30 13 1 13 6
M  V30 14 1 13 14
M  V30 15 1 14 16
M  V30 16 1 14 15
M  V30 17 1 15 21
M  V30 18 1 16 22
M  V30 19 1 16 17
M  V30 20 1 17 12
M  V30 21 1 17 18
M  V30 22 1 18 23
M  V30 23 1 18 25
M  V30 24 1 19 24
M  V30 25 1 19 23
M  V30 26 1 19 25
M  V30 27 1 20 26
M  V30 28 1 20 9
M  V30 29 1 21 22
M  V30 30 1 22 23
M  V30 31 1 24 26
M  V30 32 1 25 26
M  V30 33 1 27 29
M  V30 34 1 27 20
M  V30 35 1 27 30
M  V30 36 1 28 30
M  V30 37 1 26 29
M  V30 38 1 29 31
M  V30 39 1 30 31
M  V30 40 1 7 36
M  V30 41 1 32 34
M  V30 42 1 32 37
M  V30 43 1 33 35
M  V30 44 1 33 34
M  V30 45 1 34 38
M  V30 46 1 27 40
M  V30 47 1 35 38
M  V30 48 1 35 4
M  V30 49 1 14 36
M  V30 50 1 30 39
M  V30 51 1 28 39
M  V30 52 1 37 40
M  V30 53 1 37 39
M  V30 54 1 38 40
M  V30 55 1 41 1
M  V30 56 1 41 36
M  V30 57 1 11 42
M  V30 58 1 42 43
M  V30 59 1 35 43
M  V30 60 1 43 2
M  V30 61 1 44 45
M  V30 62 1 44 23
M  V30 63 1 22 45
M  V30 64 1 46 47
M  V30 65 1 34 48
M  V30 66 1 10 47
M  V30 67 1 48 32
M  V30 68 1 46 49
M  V30 69 1 43 50
M  V30 70 1 50 38
M  V30 71 1 51 52
M  V30 72 1 51 47
M  V30 73 1 51 56
M  V30 74 1 52 53
M  V30 75 1 52 3
M  V30 76 1 50 54
M  V30 77 1 53 57
M  V30 78 1 54 55
M  V30 79 1 54 58
M  V30 80 1 55 58
M  V30 81 1 56 57
M  V30 82 1 56 49
M  V30 83 1 57 59
M  V30 84 1 54 62
M  V30 85 1 60 61
M  V30 86 1 61 63
M  V30 87 1 61 65
M  V30 88 1 62 66
M  V30 89 1 63 66
M  V30 90 1 64 59
M  V30 91 1 65 66
M  V30 92 1 64 71
M  V30 93 1 67 60
M  V30 94 1 67 71
M  V30 95 1 68 65
M  V30 96 1 68 72
M  V30 97 1 62 70
M  V30 98 1 69 70
M  V30 99 1 70 72
M  V30 100 1 72 66
M  V30 101 1 56 71
M  V30 102 1 69 73
M  V30 103 1 73 75
M  V30 104 1 73 74
M  V30 105 1 74 37
M  V30 106 1 70 75
M  V30 107 1 40 75
M  V30 108 1 73 78
M  V30 109 1 61 76
M  V30 110 1 76 77
M  V30 111 1 78 74
M  V30 112 1 79 77
M  V30 113 1 80 75
M  V30 114 1 80 72
M  V30 115 1 76 82
M  V30 116 1 81 85
M  V30 117 1 81 82
M  V30 118 1 81 87
M  V30 119 1 82 83
M  V30 120 1 83 85
M  V30 121 1 83 63
M  V30 122 1 84 80
M  V30 123 1 84 86
M  V30 124 1 84 88
M  V30 125 1 86 88
M  V30 126 1 79 87
M  V30 127 1 81 89
M  V30 128 1 89 90
M  V30 129 1 89 91
M  V30 130 1 87 91
M  V30 131 1 85 90
M  V30 132 1 91 95
M  V30 133 1 92 99
M  V30 134 1 92 90
M  V30 135 1 92 97
M  V30 136 1 93 84
M  V30 137 1 93 99
M  V30 138 1 94 97
M  V30 139 1 94 96
M  V30 140 1 95 96
M  V30 141 1 96 89
M  V30 142 1 97 98
M  V30 143 1 98 99
M  V30 144 1 94 101
M  V30 145 1 96 101
M  V30 146 1 99 104
M  V30 147 1 98 103
M  V30 148 1 93 102
M  V30 149 1 100 102
M  V30 150 1 102 104
M  V30 151 1 103 104
M  V30 152 1 40 105
M  V30 153 1 105 102
M  V30 154 1 105 106
M  V30 155 1 37 107
M  V30 156 1 106 100
M  V30 157 1 106 107
M  V30 158 1 106 110
M  V30 159 1 97 109
M  V30 160 1 108 109
M  V30 161 1 101 109
M  V30 162 1 110 107
M  V30 163 1 111 108
M  V30 164 1 104 112
M  V30 165 1 112 105
M  V30 166 1 113 117
M  V30 167 1 113 114
M  V30 168 1 109 116
M  V30 169 1 114 116
M  V30 170 1 114 115
M  V30 171 1 115 111
M  V30 172 1 116 117
M  V30 173 1 117 92
M  V30 174 1 112 119
M  V30 175 1 118 119
M  V30 176 1 118 120
M  V30 177 1 119 120
M  V30 178 1 115 123
M  V30 179 1 121 122
M  V30 180 1 121 114
M  V30 181 1 121 123
M  V30 182 1 122 113
M  V30 183 1 44 124
M  V30 184 1 25 125
M  V30 185 1 119 125
M  V30 186 1 124 121
M  V30 187 1 124 126
M  V30 188 1 18 122
M  V30 189 1 126 123
M  V30 190 1 29 125
M  V30 191 1 45 124
M  V30 END BOND
M  V30 END CTAB
M  END
