
     RDKit          3D

  0  0  0  0  0  0  0  0  0  0999 V3000
M  V30 BEGIN CTAB
M  V30 COUNTS 168 192 0 0 0
M  V30 BEGIN ATOM
M  V30 1 F 8.152000 19.482000 12.629000 0
M  V30 2 F 8.257000 18.888000 13.893000 0
M  V30 3 F 9.172000 19.428000 14.820000 0
M  V30 4 F 9.954000 20.560000 14.469000 0
M  V30 5 F 9.732000 21.032000 13.247000 0
M  V30 6 F 8.919000 20.560000 12.225000 0
M  V30 7 F 10.903000 21.174000 15.519000 0
M  V30 8 F 8.824000 21.174000 10.903000 0
M  V30 9 F 9.874000 20.560000 9.954000 0
M  V30 10 F 9.523000 19.428000 9.172000 0
M  V30 11 F 10.450000 18.888000 8.257000 0
M  V30 12 F 11.714000 19.482000 8.152000 0
M  V30 13 F 12.118000 20.560000 8.919000 0
M  V30 14 F 11.096000 21.032000 9.732000 0
M  V30 15 F 13.440000 21.174000 8.824000 0
M  V30 16 F 14.389000 20.560000 9.874000 0
M  V30 17 F 15.171000 19.428000 9.523000 0
M  V30 18 F 16.086000 18.888000 10.450000 0
M  V30 19 F 16.191000 19.482000 11.714000 0
M  V30 20 F 15.424000 20.560000 12.118000 0
M  V30 21 F 14.611000 21.032000 11.096000 0
M  V30 22 F 15.519000 21.174000 13.440000 0
M  V30 23 F 14.469000 20.560000 14.389000 0
M  V30 24 F 14.820000 19.428000 15.171000 0
M  V30 25 F 13.893000 18.888000 16.086000 0
M  V30 26 F 12.629000 19.482000 16.191000 0
M  V30 27 F 12.225000 20.560000 15.424000 0
M  V30 28 F 13.247000 21.032000 14.611000 0
M  V30 29 F 4.861000 8.152000 12.629000 0
M  V30 30 F 5.455000 8.257000 13.893000 0
M  V30 31 F 4.915000 9.172000 14.820000 0
M  V30 32 F 3.783000 9.954000 14.469000 0
M  V30 33 F 3.311000 9.732000 13.247000 0
M  V30 34 F 3.783000 8.919000 12.225000 0
M  V30 35 F 3.169000 10.903000 15.519000 0
M  V30 36 F 3.169000 8.824000 10.903000 0
M  V30 37 F 3.783000 9.874000 9.954000 0
M  V30 38 F 4.915000 9.523000 9.172000 0
M  V30 39 F 5.455000 10.450000 8.257000 0
M  V30 40 F 4.861000 11.714000 8.152000 0
M  V30 41 F 3.783000 12.118000 8.919000 0
M  V30 42 F 3.311000 11.096000 9.732000 0
M  V30 43 F 3.169000 13.440000 8.824000 0
M  V30 44 F 3.783000 14.389000 9.874000 0
M  V30 45 F 4.915000 15.171000 9.523000 0
M  V30 46 F 5.455000 16.086000 10.450000 0
M  V30 47 F 4.861000 16.191000 11.714000 0
M  V30 48 F 3.783000 15.424000 12.118000 0
M  V30 49 F 3.311000 14.611000 11.096000 0
M  V30 50 F 3.169000 15.519000 13.440000 0
M  V30 51 F 3.783000 14.469000 14.389000 0
M  V30 52 F 4.915000 14.820000 15.171000 0
M  V30 53 F 5.455000 13.893000 16.086000 0
M  V30 54 F 4.861000 12.629000 16.191000 0
M  V30 55 F 3.783000 12.225000 15.424000 0
M  V30 56 F 3.311000 13.247000 14.611000 0
M  V30 57 F 8.152000 4.861000 11.714000 0
M  V30 58 F 8.257000 5.455000 10.450000 0
M  V30 59 F 9.172000 4.915000 9.523000 0
M  V30 60 F 9.954000 3.783000 9.874000 0
M  V30 61 F 9.732000 3.311000 11.096000 0
M  V30 62 F 8.919000 3.783000 12.118000 0
M  V30 63 F 10.903000 3.169000 8.824000 0
M  V30 64 F 8.824000 3.169000 13.440000 0
M  V30 65 F 9.874000 3.783000 14.389000 0
M  V30 66 F 9.523000 4.915000 15.171000 0
M  V30 67 F 10.450000 5.455000 16.086000 0
M  V30 68 F 11.714000 4.861000 16.191000 0
M  V30 69 F 12.118000 3.783000 15.424000 0
M  V30 70 F 11.096000 3.311000 14.611000 0
M  V30 71 F 13.440000 3.169000 15.519000 0
M  V30 72 F 14.389000 3.783000 14.469000 0
M  V30 73 F 15.171000 4.915000 14.820000 0
M  V30 74 F 16.086000 5.455000 13.893000 0
M  V30 75 F 16.191000 4.861000 12.629000 0
M  V30 76 F 15.424000 3.783000 12.225000 0
M  V30 77 F 14.611000 3.311000 13.247000 0
M  V30 78 F 15.519000 3.169000 10.903000 0
M  V30 79 F 14.469000 3.783000 9.954000 0
M  V30 80 F 14.820000 4.915000 9.172000 0
M  V30 81 F 13.893000 5.455000 8.257000 0
M  V30 82 F 12.629000 4.861000 8.152000 0
M  V30 83 F 12.225000 3.783000 8.919000 0
M  V30 84 F 13.247000 3.311000 9.732000 0
M  V30 85 F 12.629000 8.152000 19.482000 0
M  V30 86 F 13.893000 8.257000 18.888000 0
M  V30 87 F 14.820000 9.172000 19.428000 0
M  V30 88 F 14.469000 9.954000 20.560000 0
M  V30 89 F 13.247000 9.732000 21.032000 0
M  V30 90 F 12.225000 8.919000 20.560000 0
M  V30 91 F 15.519000 10.903000 21.174000 0
M  V30 92 F 10.903000 8.824000 21.174000 0
M  V30 93 F 9.954000 9.874000 20.560000 0
M  V30 94 F 9.172000 9.523000 19.428000 0
M  V30 95 F 8.257000 10.450000 18.888000 0
M  V30 96 F 8.152000 11.714000 19.482000 0
M  V30 97 F 8.919000 12.118000 20.560000 0
M  V30 98 F 9.732000 11.096000 21.032000 0
M  V30 99 F 8.824000 13.440000 21.174000 0
M  V30 100 F 9.874000 14.389000 20.560000 0
M  V30 101 F 9.523000 15.171000 19.428000 0
M  V30 102 F 10.450000 16.086000 18.888000 0
M  V30 103 F 11.714000 16.191000 19.482000 0
M  V30 104 F 12.118000 15.424000 20.560000 0
M  V30 105 F 11.096000 14.611000 21.032000 0
M  V30 106 F 13.440000 15.519000 21.174000 0
M  V30 107 F 14.389000 14.469000 20.560000 0
M  V30 108 F 15.171000 14.820000 19.428000 0
M  V30 109 F 16.086000 13.893000 18.888000 0
M  V30 110 F 16.191000 12.629000 19.482000 0
M  V30 111 F 15.424000 12.225000 20.560000 0
M  V30 112 F 14.611000 13.247000 21.032000 0
M  V30 113 F 19.482000 8.152000 11.714000 0
M  V30 114 F 18.888000 8.257000 10.450000 0
M  V30 115 F 19.428000 9.172000 9.523000 0
M  V30 116 F 20.560000 9.954000 9.874000 0
M  V30 117 F 21.032000 9.732000 11.096000 0
M  V30 118 F 20.560000 8.919000 12.118000 0
M  V30 119 F 21.174000 10.903000 8.824000 0
M  V30 120 F 21.174000 8.824000 13.440000 0
M  V30 121 F 20.560000 9.874000 14.389000 0
M  V30 122 F 19.428000 9.523000 15.171000 0
M  V30 123 F 18.888000 10.450000 16.086000 0
M  V30 124 F 19.482000 11.714000 16.191000 0
M  V30 125 F 20.560000 12.118000 15.424000 0
M  V30 126 F 21.032000 11.096000 14.611000 0
M  V30 127 F 21.174000 13.440000 15.519000 0
M  V30 128 F 20.560000 14.389000 14.469000 0
M  V30 129 F 19.428000 15.171000 14.820000 0
M  V30 130 F 18.888000 16.086000 13.893000 0
M  V30 131 F 19.482000 16.191000 12.629000 0
M  V30 132 F 20.560000 15.424000 12.225000 0
M  V30 133 F 21.032000 14.611000 13.247000 0
M  V30 134 F 21.174000 15.519000 10.903000 0
M  V30 135 F 20.560000 14.469000 9.954000 0
M  V30 136 F 19.428000 14.820000 9.172000 0
M  V30 137 F 18.888000 13.893000 8.257000 0
M  V30 138 F 19.482000 12.629000 8.152000 0
M  V30 139 F 20.560000 12.225000 8.919000 0
M  V30 140 F 21.032000 13.247000 9.732000 0
M  V30 141 F 12.629000 16.191000 4.861000 0
M  V30 142 F 13.893000 16.086000 5.455000 0
M  V30 143 F 14.820000 15.171000 4.915000 0
M  V30 144 F 14.469000 14.389000 3.783000 0
M  V30 145 F 13.247000 14.611000 3.311000 0
M  V30 146 F 12.225000 15.424000 3.783000 0
M  V30 147 F 15.519000 13.440000 3.169000 0
M  V30 148 F 10.903000 15.519000 3.169000 0
M  V30 149 F 9.954000 14.469000 3.783000 0
M  V30 150 F 9.172000 14.820000 4.915000 0
M  V30 151 F 8.257000 13.893000 5.455000 0
M  V30 152 F 8.152000 12.629000 4.861000 0
M  V30 153 F 8.919000 12.225000 3.783000 0
M  V30 154 F 9.732000 13.247000 3.311000 0
M  V30 155 F 8.824000 10.903000 3.169000 0
M  V30 156 F 9.874000 9.954000 3.783000 0
M  V30 157 F 9.523000 9.172000 4.915000 0
M  V30 158 F 10.450000 8.257000 5.455000 0
M  V30 159 F 11.714000 8.152000 4.861000 0
M  V30 160 F 12.118000 8.919000 3.783000 0
M  V30 161 F 11.096000 9.732000 3.311000 0
M  V30 162 F 13.440000 8.824000 3.169000 0
M  V30 163 F 14.389000 9.874000 3.783000 0
M  V30 164 F 15.171000 9.523000 4.915000 0
M  V30 165 F 16.086000 10.450000 5.455000 0
M  V30 166 F 16.191000 11.714000 4.861000 0
M  V30 167 F 15.424000 12.118000 3.783000 0
M  V30 168 F 14.611000 11.096000 3.311000 0
M  V30 END ATOM
M  V30 BEGIN BOND
M  V30 1 1 1 6
M  V30 2 1 1 2
M  V30 3 1 2 3
M  V30 4 1 3 4
M  V30 5 1 4 5
M  V30 6 1 4 7
M  V30 7 1 5 6
M  V30 8 1 6 8
M  V30 9 1 7 27
M  V30 10 1 8 9
M  V30 11 1 9 10
M  V30 12 1 9 14
M  V30 13 1 10 11
M  V30 14 1 11 12
M  V30 15 1 12 13
M  V30 16 1 13 15
M  V30 17 1 13 14
M  V30 18 1 15 16
M  V30 19 1 16 17
M  V30 20 1 16 21
M  V30 21 1 17 18
M  V30 22 1 18 19
M  V30 23 1 19 20
M  V30 24 1 20 21
M  V30 25 1 20 22
M  V30 26 1 22 23
M  V30 27 1 23 28
M  V30 28 1 23 24
M  V30 29 1 24 25
M  V30 30 1 25 26
M  V30 31 1 26 27
M  V30 32 1 27 28
M  V30 33 1 29 34
M  V30 34 1 29 30
M  V30 35 1 30 31
M  V30 36 1 31 32
M  V30 37 1 32 33
M  V30 38 1 32 35
M  V30 39 1 33 34
M  V30 40 1 34 36
M  V30 41 1 35 55
M  V30 42 1 36 37
M  V30 43 1 37 38
M  V30 44 1 37 42
M  V30 45 1 38 39
M  V30 46 1 39 40
M  V30 47 1 40 41
M  V30 48 1 41 43
M  V30 49 1 41 42
M  V30 50 1 43 44
M  V30 51 1 44 45
M  V30 52 1 44 49
M  V30 53 1 45 46
M  V30 54 1 46 47
M  V30 55 1 47 48
M  V30 56 1 48 49
M  V30 57 1 48 50
M  V30 58 1 50 51
M  V30 59 1 51 56
M  V30 60 1 51 52
M  V30 61 1 52 53
M  V30 62 1 53 54
M  V30 63 1 54 55
M  V30 64 1 55 56
M  V30 65 1 57 58
M  V30 66 1 57 62
M  V30 67 1 58 59
M  V30 68 1 59 60
M  V30 69 1 60 63
M  V30 70 1 60 61
M  V30 71 1 61 62
M  V30 72 1 62 64
M  V30 73 1 63 83
M  V30 74 1 64 65
M  V30 75 1 65 70
M  V30 76 1 65 66
M  V30 77 1 66 67
M  V30 78 1 67 68
M  V30 79 1 68 69
M  V30 80 1 69 70
M  V30 81 1 69 71
M  V30 82 1 71 72
M  V30 83 1 72 77
M  V30 84 1 72 73
M  V30 85 1 73 74
M  V30 86 1 74 75
M  V30 87 1 75 76
M  V30 88 1 76 78
M  V30 89 1 76 77
M  V30 90 1 78 79
M  V30 91 1 79 80
M  V30 92 1 79 84
M  V30 93 1 80 81
M  V30 94 1 81 82
M  V30 95 1 82 83
M  V30 96 1 83 84
M  V30 97 1 85 86
M  V30 98 1 85 90
M  V30 99 1 86 87
M  V30 100 1 87 88
M  V30 101 1 88 89
M  V30 102 1 88 91
M  V30 103 1 89 90
M  V30 104 1 90 92
M  V30 105 1 91 111
M  V30 106 1 92 93
M  V30 107 1 93 94
M  V30 108 1 93 98
M  V30 109 1 94 95
M  V30 110 1 95 96
M  V30 111 1 96 97
M  V30 112 1 97 98
M  V30 113 1 97 99
M  V30 114 1 99 100
M  V30 115 1 100 101
M  V30 116 1 100 105
M  V30 117 1 101 102
M  V30 118 1 102 103
M  V30 119 1 103 104
M  V30 120 1 104 105
M  V30 121 1 104 106
M  V30 122 1 106 107
M  V30 123 1 107 108
M  V30 124 1 107 112
M  V30 125 1 108 109
M  V30 126 1 109 110
M  V30 127 1 110 111
M  V30 128 1 111 112
M  V30 129 1 113 114
M  V30 130 1 113 118
M  V30 131 1 114 115
M  V30 132 1 115 116
M  V30 133 1 116 119
M  V30 134 1 116 117
M  V30 135 1 117 118
M  V30 136 1 118 120
M  V30 137 1 119 139
M  V30 138 1 120 121
M  V30 139 1 121 126
M  V30 140 1 121 122
M  V30 141 1 122 123
M  V30 142 1 123 124
M  V30 143 1 124 125
M  V30 144 1 125 126
M  V30 145 1 125 127
M  V30 146 1 127 128
M  V30 147 1 128 133
M  V30 148 1 128 129
M  V30 149 1 129 130
M  V30 150 1 130 131
M  V30 151 1 131 132
M  V30 152 1 132 134
M  V30 153 1 132 133
M  V30 154 1 134 135
M  V30 155 1 135 136
M  V30 156 1 135 140
M  V30 157 1 136 137
M  V30 158 1 137 138
M  V30 159 1 138 139
M  V30 160 1 139 140
M  V30 161 1 141 146
M  V30 162 1 141 142
M  V30 163 1 142 143
M  V30 164 1 143 144
M  V30 165 1 144 147
M  V30 166 1 144 145
M  V30 167 1 145 146
M  V30 168 1 146 148
M  V30 169 1 147 167
M  V30 170 1 148 149
M  V30 171 1 149 154
M  V30 172 1 149 150
M  V30 173 1 150 151
M  V30 174 1 151 152
M  V30 175 1 152 153
M  V30 176 1 153 155
M  V30 177 1 153 154
M  V30 178 1 155 156
M  V30 179 1 156 161
M  V30 180 1 156 157
M  V30 181 1 157 158
M  V30 182 1 158 159
M  V30 183 1 159 160
M  V30 184 1 160 162
M  V30 185 1 160 161
M  V30 186 1 162 163
M  V30 187 1 163 168
M  V30 188 1 163 164
M  V30 189 1 164 165
M  V30 190 1 165 166
M  V30 191 1 166 167
M  V30 192 1 167 168
M  V30 END BOND
M  V30 END CTAB
M  END
