
     RDKit          3D

  0  0  0  0  0  0  0  0  0  0999 V3000
M  V30 BEGIN CTAB
M  V30 COUNTS 401 645 0 0 0
M  V30 BEGIN ATOM
M  V30 1 H 7.286400 1.055700 10.678631 0
M  V30 2 H 7.286400 4.977792 10.840751 0
M  V30 3 H 7.286400 3.759684 14.081932 0
M  V30 4 N 5.283887 6.040624 12.063513 0
M  V30 5 H 7.286400 1.055700 13.406557 0
M  V30 6 N 5.379906 6.040214 12.121923 0
M  V30 7 N 5.509438 6.052029 12.111403 0
M  V30 8 H 7.286400 6.039565 12.040597 0
M  V30 9 N 4.912254 5.710900 12.406908 0
M  V30 10 H 7.286400 4.942777 10.811493 0
M  V30 11 N 5.216563 6.029639 12.103969 0
M  V30 12 N 5.576798 6.050564 12.022867 0
M  V30 13 N 5.407168 6.052017 12.052430 0
M  V30 14 H 7.286400 6.040445 12.116710 0
M  V30 15 N 4.861358 5.477375 12.608259 0
M  V30 16 N 4.954064 5.850900 12.257061 0
M  V30 17 N 5.044941 5.100227 12.932746 0
M  V30 18 H 7.286400 1.055700 16.515264 0
M  V30 19 H 5.046863 1.055700 16.462234 0
M  V30 20 N 4.590268 2.948359 14.828958 0
M  V30 21 H 4.910797 1.055700 14.575087 0
M  V30 22 N 4.999926 4.991216 13.087438 0
M  V30 23 H 7.286400 3.503620 14.416807 0
M  V30 24 H 5.485934 1.055700 6.678900 0
M  V30 25 H 7.286400 1.055700 6.678900 0
M  V30 26 H 5.612960 1.358738 6.678900 0
M  V30 27 N 4.760840 3.981799 9.691990 0
M  V30 28 H 7.286400 1.350724 6.678900 0
M  V30 29 H 5.459799 1.231899 6.678900 0
M  V30 30 H 5.092763 1.055700 9.428831 0
M  V30 31 N 4.594843 4.012303 9.844035 0
M  V30 32 N 4.603817 4.172698 9.982493 0
M  V30 33 N 4.947151 6.043571 12.065048 0
M  V30 34 N 4.863157 6.036874 12.091209 0
M  V30 35 N 4.865639 6.034927 12.097877 0
M  V30 36 N 3.248681 2.626253 12.180500 0
M  V30 37 N 3.154598 6.042472 12.099018 0
M  V30 38 N 2.987564 6.020927 12.158250 0
M  V30 39 N 3.000428 6.028611 12.136656 0
M  V30 40 N 2.783239 5.410504 12.565512 0
M  V30 41 N 4.826458 6.040360 12.102814 0
M  V30 42 N 4.639354 6.029687 12.162703 0
M  V30 43 N 3.047030 6.037125 12.129090 0
M  V30 44 N 2.783377 5.410624 12.565624 0
M  V30 45 N 4.828310 6.041505 12.096478 0
M  V30 46 N 3.059357 6.033763 12.147618 0
M  V30 47 N 2.827680 5.530584 12.583246 0
M  V30 48 N 4.815864 5.639508 12.503103 0
M  V30 49 N 2.789323 5.589896 12.531417 0
M  V30 50 N 2.782880 5.412941 12.564605 0
M  V30 51 N 4.786924 5.513742 12.612196 0
M  V30 52 N 2.886620 5.415717 12.728259 0
M  V30 53 N 3.248681 2.626253 12.180500 0
M  V30 54 N 2.896853 5.376455 12.761994 0
M  V30 55 N 4.513636 3.085922 14.747885 0
M  V30 56 N 4.761824 5.353342 12.814268 0
M  V30 57 N 4.902724 5.061244 13.066379 0
M  V30 58 N 2.752667 6.011467 12.187246 0
M  V30 59 H 2.235255 1.055700 9.582129 0
M  V30 60 H 3.607111 1.236416 6.678900 0
M  V30 61 H 3.495131 1.055700 6.678900 0
M  V30 62 H 2.274398 1.055700 8.442263 0
M  V30 63 N 2.646899 5.924941 12.262579 0
M  V30 64 N 2.798580 6.029319 12.136902 0
M  V30 65 N 2.611489 5.681764 12.366061 0
M  V30 66 N 2.878139 6.010602 12.188279 0
M  V30 67 N 2.574252 5.693677 12.301997 0
M  V30 68 N 2.655775 5.774403 12.394073 0
M  V30 69 N 2.627222 5.880835 12.301057 0
M  V30 70 N 2.720490 5.690341 12.467633 0
M  V30 71 N 2.770634 5.437017 12.552610 0
M  V30 72 N 2.734217 5.665169 12.484327 0
M  V30 73 N 3.248681 2.626253 12.180500 0
M  V30 74 N 2.782999 5.409920 12.565616 0
M  V30 75 H 4.936846 1.055700 16.557545 0
M  V30 76 N 2.984033 4.905514 13.263987 0
M  V30 77 H 3.128205 1.055700 16.519016 0
M  V30 78 H 2.027961 1.055700 14.876632 0
M  V30 79 N 4.480526 2.838101 15.042221 0
M  V30 80 N 0.767455 2.243602 12.084746 0
M  V30 81 N 2.772629 5.402461 12.564385 0
M  V30 82 N 0.688429 2.228828 12.032962 0
M  V30 83 N 3.248681 2.626253 12.180500 0
M  V30 84 N 0.797142 2.596236 12.000184 0
M  V30 85 N 0.702732 2.430221 11.982781 0
M  V30 86 N 0.546545 2.160423 12.025248 0
M  V30 87 H -0.668145 1.055700 13.016056 0
M  V30 88 H 1.086489 1.055700 14.833693 0
M  V30 89 H 0.009567 1.055700 11.909726 0
M  V30 90 H -0.933021 1.055700 10.277144 0
M  V30 91 H 0.731388 1.055700 8.407776 0
M  V30 92 N 0.579733 2.268742 12.002865 0
M  V30 93 N 0.696495 2.427357 11.982404 0
M  V30 94 N 0.593988 2.370965 11.952184 0
M  V30 95 H -1.404700 1.055700 7.307545 0
M  V30 96 H -1.111621 1.055700 10.101833 0
M  V30 97 N 2.624073 5.885354 12.299473 0
M  V30 98 N 2.153315 5.740116 12.148771 0
M  V30 99 H -1.404700 1.055700 9.555684 0
M  V30 100 N 0.538525 2.517147 11.917320 0
M  V30 101 H -1.404700 2.605197 8.220262 0
M  V30 102 N 2.229864 5.971954 12.091611 0
M  V30 103 N 2.236497 5.978583 12.091938 0
M  V30 104 N 2.258548 5.986242 12.098661 0
M  V30 105 N 2.568868 5.962859 12.244723 0
M  V30 106 N 1.146572 4.970228 10.931643 0
M  V30 107 N 2.241081 5.981217 12.092926 0
M  V30 108 N 2.612471 5.923047 12.279572 0
M  V30 109 N 2.622084 5.944118 12.261094 0
M  V30 110 H -1.404700 1.055700 6.678900 0
M  V30 111 N 2.435180 6.083599 12.127016 0
M  V30 112 N 2.653315 6.150540 12.032614 0
M  V30 113 N 2.516187 6.068252 12.172959 0
M  V30 114 N 2.084305 4.072211 7.880447 0
M  V30 115 H -1.404700 1.977604 6.678900 0
M  V30 116 H 2.283929 2.988441 6.678900 0
M  V30 117 H 0.598341 2.949242 6.678900 0
M  V30 118 H -1.404700 2.612271 8.220233 0
M  V30 119 H -1.404700 2.611701 8.220724 0
M  V30 120 N 2.353260 5.177812 10.023754 0
M  V30 121 N 2.589191 6.093024 12.151254 0
M  V30 122 N 2.568480 6.136265 12.097885 0
M  V30 123 N 2.516495 6.117810 12.114306 0
M  V30 124 N 2.504708 6.064195 12.174610 0
M  V30 125 N 2.651754 6.020500 12.214669 0
M  V30 126 N 2.507541 6.067900 12.172473 0
M  V30 127 N 2.663261 6.029800 12.206528 0
M  V30 128 N 2.507041 6.067664 12.172583 0
M  V30 129 N 2.336689 6.035456 12.126125 0
M  V30 130 N 2.454906 6.032309 12.180794 0
M  V30 131 N 2.511395 6.008723 12.210650 0
M  V30 132 H -1.404700 1.055700 9.946877 0
M  V30 133 H -1.322132 4.226133 12.036318 0
M  V30 134 H -1.200045 4.178952 12.070423 0
M  V30 135 H -1.404700 4.146998 11.941600 0
M  V30 136 H -1.229677 4.585163 6.678900 0
M  V30 137 H -1.404700 4.402925 6.678900 0
M  V30 138 N 0.676140 6.364086 8.524355 0
M  V30 139 N 2.289300 6.193986 11.998748 0
M  V30 140 N 2.274336 6.036548 12.106945 0
M  V30 141 N 1.146572 4.970228 10.931643 0
M  V30 142 N 0.630197 6.311569 8.812864 0
M  V30 143 H -1.392968 4.428170 6.678900 0
M  V30 144 H -1.404700 2.618341 8.220664 0
M  V30 145 N 0.687773 6.364187 8.529921 0
M  V30 146 N 2.348251 6.235330 11.974984 0
M  V30 147 N 2.620956 6.225464 11.967912 0
M  V30 148 N 0.675214 6.358632 8.682103 0
M  V30 149 N 2.270279 6.212085 11.947751 0
M  V30 150 N 2.551710 6.293822 11.931991 0
M  V30 151 N 2.484004 6.291340 11.954735 0
M  V30 152 N 2.518184 6.258286 11.991113 0
M  V30 153 N 2.508276 6.291784 11.959533 0
M  V30 154 N 2.289950 6.125455 12.059162 0
M  V30 155 H -1.097529 6.233085 10.373235 0
M  V30 156 H -1.404700 4.422845 6.678900 0
M  V30 157 N 1.146572 4.970228 10.931643 0
M  V30 158 H -1.248094 6.184916 10.417834 0
M  V30 159 N 1.957538 6.116491 12.029951 0
M  V30 160 N 2.187940 6.161647 12.028564 0
M  V30 161 N 2.178571 6.037092 12.096793 0
M  V30 162 H 2.265104 4.078030 6.678900 0
M  V30 163 H -0.260816 6.421291 6.678900 0
M  V30 164 N 0.618416 6.417096 8.360834 0
M  V30 165 H 0.824738 6.458384 6.678900 0
M  V30 166 N 0.679122 6.416884 8.391750 0
M  V30 167 N 0.676802 6.418573 8.386300 0
M  V30 168 H -1.404700 6.184158 10.416780 0
M  V30 169 N 1.146572 4.970228 10.931643 0
M  V30 170 H -1.404700 6.031555 12.157210 0
M  V30 171 H -1.404700 6.095283 12.100813 0
M  V30 172 H -1.404700 4.229989 12.037974 0
M  V30 173 H -1.404700 7.964592 6.678900 0
M  V30 174 H -1.311030 8.029497 6.951077 0
M  V30 175 H -1.404700 8.104226 6.877585 0
M  V30 176 H -1.404700 1.055700 13.504397 0
M  V30 177 H -0.996973 1.055700 13.302221 0
M  V30 178 H 3.537107 6.478073 6.678900 0
M  V30 179 N 2.868938 6.585396 11.581040 0
M  V30 180 H 3.534540 6.480211 6.678900 0
M  V30 181 H 3.537073 6.478889 6.678900 0
M  V30 182 N 3.073504 6.553295 10.082920 0
M  V30 183 N 2.633490 6.572216 11.423492 0
M  V30 184 N 2.787222 6.477992 11.748665 0
M  V30 185 N 2.590802 6.341165 11.889263 0
M  V30 186 N 2.869836 6.585951 11.580985 0
M  V30 187 N 2.870742 6.593339 11.572050 0
M  V30 188 N 3.073504 6.553295 10.082920 0
M  V30 189 H 2.071425 8.776297 6.678900 0
M  V30 190 N 3.073504 6.553295 10.082920 0
M  V30 191 N 2.871365 6.584871 11.586674 0
M  V30 192 H 5.172673 3.911357 6.678900 0
M  V30 193 N 2.875811 6.566313 11.647269 0
M  V30 194 N 2.805569 6.493727 11.734970 0
M  V30 195 H 2.026040 10.392130 6.678900 0
M  V30 196 H 4.950951 9.144476 6.678900 0
M  V30 197 H 5.090087 12.053800 6.917456 0
M  V30 198 H 3.033569 12.053800 6.678900 0
M  V30 199 H 5.203163 12.053800 6.678900 0
M  V30 200 H 3.185145 12.053800 6.914503 0
M  V30 201 H 3.537237 6.478991 6.678900 0
M  V30 202 H 5.179617 12.053800 6.849060 0
M  V30 203 N 4.587084 9.205956 9.346888 0
M  V30 204 N 2.968526 7.018109 11.323715 0
M  V30 205 N 2.916534 6.677418 11.563986 0
M  V30 206 N 4.519991 9.283203 9.342670 0
M  V30 207 N 4.539719 9.140051 9.430402 0
M  V30 208 H -1.404700 8.116923 6.879507 0
M  V30 209 H -0.116876 10.378233 6.678900 0
M  V30 210 H -1.404700 8.703428 6.678900 0
M  V30 211 N 3.073504 6.553295 10.082920 0
M  V30 212 H 5.755530 6.842227 6.678900 0
M  V30 213 N 5.014877 6.662849 11.499403 0
M  V30 214 N 2.905206 6.632537 11.602896 0
M  V30 215 N 5.131786 6.944730 11.260253 0
M  V30 216 H 5.672352 6.558981 6.678900 0
M  V30 217 N 2.888703 6.586667 11.629668 0
M  V30 218 N 4.890380 6.659865 11.562427 0
M  V30 219 N 4.881147 6.727105 11.523598 0
M  V30 220 N 5.093235 7.080163 11.191838 0
M  V30 221 N 5.034686 7.066826 11.229173 0
M  V30 222 N 5.087462 6.402247 11.721384 0
M  V30 223 N 4.967523 6.357883 11.823019 0
M  V30 224 H 5.777515 6.287657 6.678900 0
M  V30 225 N 5.038622 6.287170 11.858446 0
M  V30 226 H 7.286400 8.061034 6.678900 0
M  V30 227 H 7.286400 12.053800 6.678900 0
M  V30 228 N 6.310380 7.789842 10.547312 0
M  V30 229 H 7.286400 8.484935 9.920493 0
M  V30 230 H 7.286400 12.053800 6.805584 0
M  V30 231 H 7.286400 5.268066 6.678900 0
M  V30 232 H 7.286400 8.391531 10.040395 0
M  V30 233 H -1.404700 10.965462 6.678900 0
M  V30 234 N 2.489478 6.357223 11.945308 0
M  V30 235 H -1.404700 9.801241 8.843476 0
M  V30 236 H -1.404700 9.800867 8.843621 0
M  V30 237 N 2.381221 6.421402 11.916012 0
M  V30 238 N 2.383993 6.420731 11.916661 0
M  V30 239 N 2.486816 6.358071 11.945988 0
M  V30 240 N 2.488380 6.355513 11.946658 0
M  V30 241 H -1.404700 9.799974 8.844414 0
M  V30 242 N 1.798720 6.940267 11.445487 0
M  V30 243 N 2.377404 6.423446 11.915448 0
M  V30 244 H -1.404700 12.053800 6.678900 0
M  V30 245 H 1.997072 12.053800 8.649762 0
M  V30 246 H 0.080176 12.053800 8.658305 0
M  V30 247 H -1.404700 12.053800 7.968943 0
M  V30 248 N 2.511059 7.097542 11.712669 0
M  V30 249 H -1.404700 9.802670 8.843646 0
M  V30 250 N 2.773923 6.934812 11.669513 0
M  V30 251 N 2.781537 6.933934 11.665239 0
M  V30 252 N 2.780221 6.935788 11.665653 0
M  V30 253 N 2.782144 6.931582 11.665332 0
M  V30 254 N 2.442359 6.434345 11.938468 0
M  V30 255 N 2.376952 6.423843 11.915426 0
M  V30 256 N 1.798720 6.940267 11.445487 0
M  V30 257 H -1.404700 7.821455 12.237856 0
M  V30 258 H -1.111862 7.852261 12.217427 0
M  V30 259 H -1.162099 7.831869 12.233449 0
M  V30 260 N 1.798720 6.940267 11.445487 0
M  V30 261 N 0.599038 9.579720 12.299374 0
M  V30 262 H -1.404700 11.474973 10.794183 0
M  V30 263 H -1.404700 12.053800 10.030468 0
M  V30 264 N 0.703718 9.790703 12.305797 0
M  V30 265 N 0.628615 9.765631 12.342757 0
M  V30 266 H -1.404700 11.636054 10.810123 0
M  V30 267 N 1.798720 6.940267 11.445487 0
M  V30 268 N 0.610083 9.822627 12.332742 0
M  V30 269 N 0.675286 9.794260 12.325431 0
M  V30 270 N 2.070639 7.118486 12.025882 0
M  V30 271 N 0.677247 9.740420 12.338306 0
M  V30 272 N 0.628804 9.662259 12.332688 0
M  V30 273 H -1.404700 12.053800 11.230095 0
M  V30 274 H -0.542298 12.053800 12.662181 0
M  V30 275 H -1.404700 11.270783 14.460007 0
M  V30 276 H -1.404700 12.053800 14.119579 0
M  V30 277 H -1.404700 11.547826 14.486501 0
M  V30 278 H 0.889235 12.053800 12.573769 0
M  V30 279 H 2.084059 12.053800 10.219428 0
M  V30 280 N 0.715093 10.029325 12.350182 0
M  V30 281 H 3.681982 12.053800 12.586917 0
M  V30 282 H 3.678558 12.053800 12.590230 0
M  V30 283 H 1.146031 12.053800 12.710826 0
M  V30 284 H 3.681235 12.053800 12.588467 0
M  V30 285 H 3.681943 12.053800 12.586434 0
M  V30 286 H 2.517763 12.053800 15.006901 0
M  V30 287 N 2.485544 6.363741 11.957070 0
M  V30 288 N 2.200625 9.040589 14.016573 0
M  V30 289 N 2.124218 10.017741 14.710912 0
M  V30 290 H 5.007846 12.053800 9.839922 0
M  V30 291 N 3.205761 9.347632 12.100066 0
M  V30 292 N 3.205761 9.347632 12.100066 0
M  V30 293 H 3.876084 11.710535 18.645000 0
M  V30 294 H 2.614243 12.053800 17.098759 0
M  V30 295 H 6.028872 12.053800 18.645000 0
M  V30 296 N 5.599374 10.599658 17.417368 0
M  V30 297 H 3.680970 12.053800 18.645000 0
M  V30 298 H 5.975278 11.680759 18.645000 0
M  V30 299 N 4.599297 8.038828 14.507690 0
M  V30 300 H 5.397407 12.053800 15.130698 0
M  V30 301 N 4.591949 7.878407 14.270715 0
M  V30 302 N 4.687506 8.025740 14.400510 0
M  V30 303 H -0.484743 12.053800 17.044915 0
M  V30 304 H -1.404700 12.053800 15.846880 0
M  V30 305 N 3.205761 9.347632 12.100066 0
M  V30 306 H 5.972449 12.053800 12.851253 0
M  V30 307 H 5.819551 12.053800 12.481842 0
M  V30 308 H 5.913400 12.053800 12.125702 0
M  V30 309 N 3.205761 9.347632 12.100066 0
M  V30 310 H 7.286400 12.053800 18.645000 0
M  V30 311 H 7.286400 11.607520 18.645000 0
M  V30 312 H 7.286400 6.984323 13.209494 0
M  V30 313 H 6.015513 11.645693 18.645000 0
M  V30 314 H 7.286400 12.053800 13.608908 0
M  V30 315 H 7.286400 7.147047 13.471981 0
M  V30 316 H 7.286400 12.053800 11.154998 0
M  V30 317 H -1.404700 12.053800 17.495810 0
M  V30 318 H -1.404700 9.453070 16.016424 0
M  V30 319 H -1.404700 9.452923 16.017932 0
M  V30 320 N -0.902952 9.018694 15.525274 0
M  V30 321 N 1.556729 6.890323 13.106938 0
M  V30 322 N 1.556729 6.890323 13.106938 0
M  V30 323 H -1.404700 9.452194 16.018556 0
M  V30 324 H 2.567955 10.057205 18.645000 0
M  V30 325 H -1.404700 12.053800 18.645000 0
M  V30 326 H -1.404700 10.493446 18.645000 0
M  V30 327 N -0.902952 9.018694 15.525274 0
M  V30 328 H -0.438685 10.035345 18.645000 0
M  V30 329 N 1.556729 6.890323 13.106938 0
M  V30 330 H -1.239226 5.927582 13.928286 0
M  V30 331 H -1.404700 5.928160 13.916887 0
M  V30 332 N -0.902952 9.018694 15.525274 0
M  V30 333 H -1.404700 9.451778 16.018536 0
M  V30 334 H -1.131499 5.889956 13.968701 0
M  V30 335 N 0.587542 5.785041 15.724179 0
M  V30 336 H -1.404700 7.639341 17.573268 0
M  V30 337 N 2.379719 5.883801 12.545157 0
M  V30 338 N 0.613888 5.757069 15.798933 0
M  V30 339 N -0.902952 9.018694 15.525274 0
M  V30 340 N 0.673918 5.753758 15.844484 0
M  V30 341 N 0.613695 5.754612 15.874913 0
M  V30 342 H -1.404700 9.118828 18.645000 0
M  V30 343 H -1.404700 7.629250 17.863391 0
M  V30 344 N 2.458664 5.798755 12.774223 0
M  V30 345 N 2.426100 5.795652 12.900652 0
M  V30 346 N 2.536819 5.836187 12.498822 0
M  V30 347 N 0.562090 5.705646 16.024082 0
M  V30 348 H -1.404700 4.856913 18.645000 0
M  V30 349 H -0.807662 5.724902 18.645000 0
M  V30 350 H -1.404700 3.966856 17.484788 0
M  V30 351 H -1.404700 6.859033 18.645000 0
M  V30 352 H -1.404700 3.975613 17.194463 0
M  V30 353 H 2.496995 8.069484 18.645000 0
M  V30 354 H 1.024977 5.741829 18.645000 0
M  V30 355 H 0.829831 5.640379 18.645000 0
M  V30 356 N 0.658507 5.701490 15.982273 0
M  V30 357 N 2.686687 5.445263 13.231722 0
M  V30 358 N 0.764362 5.632927 15.957705 0
M  V30 359 H 3.786218 5.649681 18.645000 0
M  V30 360 H 3.784092 5.644425 18.645000 0
M  V30 361 H 3.786031 5.645429 18.645000 0
M  V30 362 N 2.691124 5.441914 13.227989 0
M  V30 363 N 3.079673 5.514297 15.149734 0
M  V30 364 N 2.691240 5.440768 13.228821 0
M  V30 365 H 2.136845 3.094062 18.645000 0
M  V30 366 N 2.630862 5.284674 13.456675 0
M  V30 367 H 5.433838 8.198411 18.645000 0
M  V30 368 N 3.079673 5.514297 15.149734 0
M  V30 369 N 2.693104 5.444414 13.212035 0
M  V30 370 N 2.693099 5.443875 13.213979 0
M  V30 371 N 2.718127 5.682007 12.484741 0
M  V30 372 N 2.575898 5.751755 12.527255 0
M  V30 373 N 2.578882 5.754200 12.515104 0
M  V30 374 N 2.579059 5.756516 12.510885 0
M  V30 375 N 2.583598 5.760321 12.499207 0
M  V30 376 H 2.002437 1.055700 18.223648 0
M  V30 377 H 2.044115 1.055700 18.645000 0
M  V30 378 H 3.788777 5.643734 18.645000 0
M  V30 379 H 5.365283 1.055700 18.645000 0
M  V30 380 H 5.208673 2.976722 18.645000 0
M  V30 381 N 2.692641 5.436878 13.225810 0
M  V30 382 H -1.404700 1.055700 18.645000 0
M  V30 383 H -1.404700 1.055700 18.455173 0
M  V30 384 H -0.902130 1.055700 18.230025 0
M  V30 385 H 6.028582 5.271354 18.645000 0
M  V30 386 H 5.940087 5.567842 18.645000 0
M  V30 387 N 2.693235 5.443838 13.213239 0
M  V30 388 H 6.057409 5.866478 18.645000 0
M  V30 389 H 7.286400 1.055700 18.645000 0
M  V30 390 H 7.286400 4.313017 18.645000 0
M  V30 391 H 7.286400 6.661643 18.645000 0
M  V30 392 H -1.404700 2.333577 15.383743 0
M  V30 393 H -1.404700 1.055700 17.775956 0
M  V30 394 H -0.997279 2.678156 15.089786 0
M  V30 395 H -1.404700 2.325118 15.384971 0
M  V30 396 H -1.404700 2.326661 15.383635 0
M  V30 397 H -1.404700 2.328261 15.383051 0
M  V30 398 H -0.997279 2.678156 15.089786 0
M  V30 399 H -1.404700 1.055700 15.847335 0
M  V30 400 H -1.404700 1.055700 13.983736 0
M  V30 401 H -0.997279 2.678156 15.089786 0
M  V30 END ATOM
M  V30 BEGIN BOND
M  V30 1 1 2 8
M  V30 2 1 2 10
M  V30 3 1 2 12
M  V30 4 1 3 17
M  V30 5 1 3 14
M  V30 6 1 4 13
M  V30 7 1 4 10
M  V30 8 1 4 11
M  V30 9 1 6 7
M  V30 10 1 6 11
M  V30 11 1 6 9
M  V30 12 1 7 14
M  V30 13 1 7 13
M  V30 14 1 8 14
M  V30 15 1 8 12
M  V30 16 1 9 16
M  V30 17 1 9 15
M  V30 18 1 11 16
M  V30 19 1 12 13
M  V30 20 1 15 17
M  V30 21 1 5 18
M  V30 22 1 18 19
M  V30 23 1 18 23
M  V30 24 1 17 22
M  V30 25 1 19 20
M  V30 26 1 19 21
M  V30 27 1 20 22
M  V30 28 1 20 21
M  V30 29 1 3 23
M  V30 30 1 22 23
M  V30 31 1 24 29
M  V30 32 1 24 25
M  V30 33 1 24 30
M  V30 34 1 25 28
M  V30 35 1 25 1
M  V30 36 1 26 28
M  V30 37 1 26 29
M  V30 38 1 26 27
M  V30 39 1 27 32
M  V30 40 1 27 33
M  V30 41 1 28 10
M  V30 42 1 29 31
M  V30 43 1 30 31
M  V30 44 1 31 32
M  V30 45 1 32 34
M  V30 46 1 4 33
M  V30 47 1 33 34
M  V30 48 1 34 35
M  V30 49 1 11 35
M  V30 50 1 35 16
M  V30 51 1 31 39
M  V30 52 1 36 44
M  V30 53 1 36 40
M  V30 54 1 37 45
M  V30 55 1 37 32
M  V30 56 1 37 43
M  V30 57 1 38 46
M  V30 58 1 38 39
M  V30 59 1 38 49
M  V30 60 1 39 43
M  V30 61 1 40 50
M  V30 62 1 40 44
M  V30 63 1 41 35
M  V30 64 1 41 45
M  V30 65 1 41 42
M  V30 66 1 34 45
M  V30 67 1 42 46
M  V30 68 1 42 48
M  V30 69 1 43 46
M  V30 70 1 44 47
M  V30 71 1 9 48
M  V30 72 1 47 51
M  V30 73 1 47 49
M  V30 74 1 48 51
M  V30 75 1 49 50
M  V30 76 1 51 15
M  V30 77 1 52 54
M  V30 78 1 52 56
M  V30 79 1 52 47
M  V30 80 1 53 44
M  V30 81 1 20 55
M  V30 82 1 54 44
M  V30 83 1 54 55
M  V30 84 1 22 57
M  V30 85 1 51 56
M  V30 86 1 55 57
M  V30 87 1 56 57
M  V30 88 1 58 66
M  V30 89 1 58 64
M  V30 90 1 58 63
M  V30 91 1 38 66
M  V30 92 1 39 64
M  V30 93 1 24 61
M  V30 94 1 59 62
M  V30 95 1 60 29
M  V30 96 1 60 61
M  V30 97 1 60 64
M  V30 98 1 61 62
M  V30 99 1 63 69
M  V30 100 1 65 67
M  V30 101 1 65 71
M  V30 102 1 65 68
M  V30 103 1 66 70
M  V30 104 1 67 69
M  V30 105 1 68 70
M  V30 106 1 68 69
M  V30 107 1 49 72
M  V30 108 1 70 72
M  V30 109 1 50 71
M  V30 110 1 71 72
M  V30 111 1 73 40
M  V30 112 1 73 44
M  V30 113 1 54 76
M  V30 114 1 74 40
M  V30 115 1 75 79
M  V30 116 1 75 77
M  V30 117 1 75 19
M  V30 118 1 76 77
M  V30 119 1 76 79
M  V30 120 1 77 78
M  V30 121 1 55 79
M  V30 122 1 80 81
M  V30 123 1 81 74
M  V30 124 1 82 85
M  V30 125 1 82 80
M  V30 126 1 83 40
M  V30 127 1 71 81
M  V30 128 1 84 67
M  V30 129 1 84 85
M  V30 130 1 84 65
M  V30 131 1 86 82
M  V30 132 1 86 89
M  V30 133 1 87 89
M  V30 134 1 88 78
M  V30 135 1 90 91
M  V30 136 1 90 89
M  V30 137 1 91 62
M  V30 138 1 85 93
M  V30 139 1 92 94
M  V30 140 1 92 86
M  V30 141 1 92 93
M  V30 142 1 93 94
M  V30 143 1 84 93
M  V30 144 1 95 91
M  V30 145 1 95 99
M  V30 146 1 95 101
M  V30 147 1 96 99
M  V30 148 1 96 90
M  V30 149 1 97 69
M  V30 150 1 97 108
M  V30 151 1 97 98
M  V30 152 1 98 102
M  V30 153 1 98 100
M  V30 154 1 99 101
M  V30 155 1 100 94
M  V30 156 1 102 103
M  V30 157 1 103 107
M  V30 158 1 103 106
M  V30 159 1 104 105
M  V30 160 1 104 107
M  V30 161 1 105 108
M  V30 162 1 105 109
M  V30 163 1 106 107
M  V30 164 1 108 109
M  V30 165 1 109 63
M  V30 166 1 110 61
M  V30 167 1 110 95
M  V30 168 1 110 115
M  V30 169 1 111 128
M  V30 170 1 111 123
M  V30 171 1 111 129
M  V30 172 1 101 119
M  V30 173 1 112 64
M  V30 174 1 112 120
M  V30 175 1 112 122
M  V30 176 1 113 125
M  V30 177 1 113 121
M  V30 178 1 113 126
M  V30 179 1 114 116
M  V30 180 1 60 116
M  V30 181 1 115 117
M  V30 182 1 115 118
M  V30 183 1 116 117
M  V30 184 1 118 119
M  V30 185 1 121 127
M  V30 186 1 121 122
M  V30 187 1 122 123
M  V30 188 1 123 126
M  V30 189 1 104 129
M  V30 190 1 124 128
M  V30 191 1 124 130
M  V30 192 1 124 131
M  V30 193 1 125 127
M  V30 194 1 125 109
M  V30 195 1 126 128
M  V30 196 1 127 58
M  V30 197 1 129 130
M  V30 198 1 130 131
M  V30 199 1 105 131
M  V30 200 1 96 132
M  V30 201 1 132 99
M  V30 202 1 133 102
M  V30 203 1 133 135
M  V30 204 1 133 134
M  V30 205 1 134 98
M  V30 206 1 136 117
M  V30 207 1 136 143
M  V30 208 1 137 143
M  V30 209 1 137 115
M  V30 210 1 137 144
M  V30 211 1 138 145
M  V30 212 1 138 148
M  V30 213 1 139 146
M  V30 214 1 139 149
M  V30 215 1 139 154
M  V30 216 1 140 129
M  V30 217 1 140 154
M  V30 218 1 140 107
M  V30 219 1 120 147
M  V30 220 1 141 107
M  V30 221 1 142 148
M  V30 222 1 142 149
M  V30 223 1 123 152
M  V30 224 1 144 118
M  V30 225 1 145 150
M  V30 226 1 146 151
M  V30 227 1 146 149
M  V30 228 1 147 112
M  V30 229 1 147 150
M  V30 230 1 148 151
M  V30 231 1 150 153
M  V30 232 1 122 152
M  V30 233 1 151 153
M  V30 234 1 152 153
M  V30 235 1 111 154
M  V30 236 1 155 149
M  V30 237 1 155 158
M  V30 238 1 156 143
M  V30 239 1 156 137
M  V30 240 1 157 107
M  V30 241 1 157 103
M  V30 242 1 158 159
M  V30 243 1 159 160
M  V30 244 1 159 161
M  V30 245 1 139 160
M  V30 246 1 160 154
M  V30 247 1 140 161
M  V30 248 1 161 103
M  V30 249 1 162 116
M  V30 250 1 136 163
M  V30 251 1 145 166
M  V30 252 1 163 165
M  V30 253 1 163 164
M  V30 254 1 138 164
M  V30 255 1 164 167
M  V30 256 1 166 167
M  V30 257 1 135 172
M  V30 258 1 158 168
M  V30 259 1 168 171
M  V30 260 1 169 103
M  V30 261 1 133 172
M  V30 262 1 170 161
M  V30 263 1 170 171
M  V30 264 1 170 172
M  V30 265 1 171 159
M  V30 266 1 163 173
M  V30 267 1 173 156
M  V30 268 1 173 175
M  V30 269 1 174 175
M  V30 270 1 176 177
M  V30 271 1 87 177
M  V30 272 1 178 181
M  V30 273 1 179 184
M  V30 274 1 179 182
M  V30 275 1 179 183
M  V30 276 1 180 181
M  V30 277 1 183 166
M  V30 278 1 183 185
M  V30 279 1 147 184
M  V30 280 1 184 185
M  V30 281 1 185 150
M  V30 282 1 186 179
M  V30 283 1 186 188
M  V30 284 1 186 187
M  V30 285 1 188 179
M  V30 286 1 186 191
M  V30 287 1 186 190
M  V30 288 1 190 179
M  V30 289 1 191 193
M  V30 290 1 192 26
M  V30 291 1 192 27
M  V30 292 1 193 37
M  V30 293 1 193 194
M  V30 294 1 184 194
M  V30 295 1 194 43
M  V30 296 1 195 198
M  V30 297 1 195 189
M  V30 298 1 181 201
M  V30 299 1 196 203
M  V30 300 1 196 199
M  V30 301 1 197 202
M  V30 302 1 197 200
M  V30 303 1 197 206
M  V30 304 1 198 200
M  V30 305 1 198 199
M  V30 306 1 187 205
M  V30 307 1 199 202
M  V30 308 1 200 204
M  V30 309 1 202 203
M  V30 310 1 203 207
M  V30 311 1 204 206
M  V30 312 1 204 205
M  V30 313 1 205 207
M  V30 314 1 206 207
M  V30 315 1 208 174
M  V30 316 1 208 210
M  V30 317 1 208 175
M  V30 318 1 195 209
M  V30 319 1 209 210
M  V30 320 1 173 210
M  V30 321 1 211 186
M  V30 322 1 212 216
M  V30 323 1 213 218
M  V30 324 1 213 215
M  V30 325 1 191 217
M  V30 326 1 214 205
M  V30 327 1 214 217
M  V30 328 1 214 219
M  V30 329 1 215 220
M  V30 330 1 217 218
M  V30 331 1 203 220
M  V30 332 1 207 221
M  V30 333 1 218 219
M  V30 334 1 219 221
M  V30 335 1 220 221
M  V30 336 1 193 217
M  V30 337 1 222 225
M  V30 338 1 222 213
M  V30 339 1 33 225
M  V30 340 1 223 218
M  V30 341 1 223 45
M  V30 342 1 223 225
M  V30 343 1 224 216
M  V30 344 1 202 230
M  V30 345 1 226 227
M  V30 346 1 226 229
M  V30 347 1 227 199
M  V30 348 1 227 230
M  V30 349 1 228 215
M  V30 350 1 228 229
M  V30 351 1 228 220
M  V30 352 1 229 230
M  V30 353 1 28 231
M  V30 354 1 222 12
M  V30 355 1 225 13
M  V30 356 1 229 232
M  V30 357 1 8 232
M  V30 358 1 232 228
M  V30 359 1 208 236
M  V30 360 1 233 209
M  V30 361 1 233 210
M  V30 362 1 233 235
M  V30 363 1 151 237
M  V30 364 1 234 185
M  V30 365 1 234 239
M  V30 366 1 234 240
M  V30 367 1 235 236
M  V30 368 1 237 238
M  V30 369 1 238 239
M  V30 370 1 239 240
M  V30 371 1 153 240
M  V30 372 1 146 243
M  V30 373 1 236 241
M  V30 374 1 242 243
M  V30 375 1 237 243
M  V30 376 1 239 254
M  V30 377 1 244 233
M  V30 378 1 244 247
M  V30 379 1 244 198
M  V30 380 1 245 200
M  V30 381 1 245 246
M  V30 382 1 246 247
M  V30 383 1 235 249
M  V30 384 1 234 250
M  V30 385 1 247 249
M  V30 386 1 248 250
M  V30 387 1 248 254
M  V30 388 1 204 251
M  V30 389 1 250 252
M  V30 390 1 251 252
M  V30 391 1 251 253
M  V30 392 1 253 194
M  V30 393 1 253 214
M  V30 394 1 254 238
M  V30 395 1 243 256
M  V30 396 1 243 255
M  V30 397 1 255 256
M  V30 398 1 255 258
M  V30 399 1 257 259
M  V30 400 1 257 171
M  V30 401 1 258 259
M  V30 402 1 160 259
M  V30 403 1 260 255
M  V30 404 1 261 255
M  V30 405 1 262 249
M  V30 406 1 263 246
M  V30 407 1 263 247
M  V30 408 1 263 266
M  V30 409 1 255 267
M  V30 410 1 264 248
M  V30 411 1 264 269
M  V30 412 1 243 267
M  V30 413 1 265 271
M  V30 414 1 265 268
M  V30 415 1 265 272
M  V30 416 1 266 262
M  V30 417 1 268 269
M  V30 418 1 254 270
M  V30 419 1 269 271
M  V30 420 1 270 271
M  V30 421 1 270 272
M  V30 422 1 272 261
M  V30 423 1 273 266
M  V30 424 1 273 276
M  V30 425 1 273 274
M  V30 426 1 274 268
M  V30 427 1 274 276
M  V30 428 1 275 277
M  V30 429 1 276 277
M  V30 430 1 273 263
M  V30 431 1 274 278
M  V30 432 1 279 245
M  V30 433 1 264 280
M  V30 434 1 269 280
M  V30 435 1 281 285
M  V30 436 1 281 284
M  V30 437 1 282 284
M  V30 438 1 283 278
M  V30 439 1 286 282
M  V30 440 1 286 283
M  V30 441 1 270 287
M  V30 442 1 240 287
M  V30 443 1 287 288
M  V30 444 1 197 290
M  V30 445 1 206 290
M  V30 446 1 251 291
M  V30 447 1 292 251
M  V30 448 1 292 253
M  V30 449 1 287 152
M  V30 450 1 286 294
M  V30 451 1 293 298
M  V30 452 1 293 297
M  V30 453 1 293 127
M  V30 454 1 294 297
M  V30 455 1 294 289
M  V30 456 1 46 301
M  V30 457 1 295 300
M  V30 458 1 295 297
M  V30 459 1 295 298
M  V30 460 1 296 302
M  V30 461 1 296 298
M  V30 462 1 296 299
M  V30 463 1 121 288
M  V30 464 1 299 66
M  V30 465 1 299 301
M  V30 466 1 284 300
M  V30 467 1 300 302
M  V30 468 1 301 302
M  V30 469 1 277 304
M  V30 470 1 303 294
M  V30 471 1 303 304
M  V30 472 1 304 276
M  V30 473 1 305 253
M  V30 474 1 281 307
M  V30 475 1 300 306
M  V30 476 1 302 41
M  V30 477 1 301 42
M  V30 478 1 306 307
M  V30 479 1 307 308
M  V30 480 1 308 290
M  V30 481 1 253 309
M  V30 482 1 309 251
M  V30 483 1 306 314
M  V30 484 1 296 313
M  V30 485 1 310 311
M  V30 486 1 310 314
M  V30 487 1 310 295
M  V30 488 1 311 315
M  V30 489 1 311 313
M  V30 490 1 312 7
M  V30 491 1 312 315
M  V30 492 1 313 298
M  V30 493 1 315 6
M  V30 494 1 308 316
M  V30 495 1 230 316
M  V30 496 1 316 314
M  V30 497 1 312 14
M  V30 498 1 317 303
M  V30 499 1 317 304
M  V30 500 1 317 319
M  V30 501 1 275 318
M  V30 502 1 126 321
M  V30 503 1 318 319
M  V30 504 1 319 320
M  V30 505 1 322 126
M  V30 506 1 322 128
M  V30 507 1 323 326
M  V30 508 1 323 319
M  V30 509 1 323 327
M  V30 510 1 324 293
M  V30 511 1 324 328
M  V30 512 1 325 297
M  V30 513 1 325 317
M  V30 514 1 325 326
M  V30 515 1 319 327
M  V30 516 1 326 328
M  V30 517 1 170 331
M  V30 518 1 329 128
M  V30 519 1 330 130
M  V30 520 1 330 331
M  V30 521 1 319 332
M  V30 522 1 332 323
M  V30 523 1 333 323
M  V30 524 1 330 334
M  V30 525 1 334 337
M  V30 526 1 335 337
M  V30 527 1 336 333
M  V30 528 1 337 131
M  V30 529 1 338 341
M  V30 530 1 338 335
M  V30 531 1 338 344
M  V30 532 1 326 342
M  V30 533 1 339 323
M  V30 534 1 340 345
M  V30 535 1 340 341
M  V30 536 1 336 343
M  V30 537 1 328 342
M  V30 538 1 128 321
M  V30 539 1 342 343
M  V30 540 1 108 346
M  V30 541 1 344 346
M  V30 542 1 344 345
M  V30 543 1 346 337
M  V30 544 1 347 341
M  V30 545 1 347 349
M  V30 546 1 348 349
M  V30 547 1 348 351
M  V30 548 1 348 350
M  V30 549 1 349 351
M  V30 550 1 350 352
M  V30 551 1 343 351
M  V30 552 1 351 342
M  V30 553 1 324 353
M  V30 554 1 353 354
M  V30 555 1 354 355
M  V30 556 1 347 356
M  V30 557 1 349 355
M  V30 558 1 340 356
M  V30 559 1 357 345
M  V30 560 1 357 358
M  V30 561 1 358 356
M  V30 562 1 359 353
M  V30 563 1 359 361
M  V30 564 1 354 360
M  V30 565 1 360 361
M  V30 566 1 362 357
M  V30 567 1 362 363
M  V30 568 1 362 364
M  V30 569 1 363 364
M  V30 570 1 355 365
M  V30 571 1 364 366
M  V30 572 1 360 365
M  V30 573 1 68 375
M  V30 574 1 367 313
M  V30 575 1 367 359
M  V30 576 1 367 299
M  V30 577 1 368 362
M  V30 578 1 362 370
M  V30 579 1 369 371
M  V30 580 1 369 370
M  V30 581 1 369 372
M  V30 582 1 371 70
M  V30 583 1 371 373
M  V30 584 1 372 344
M  V30 585 1 372 373
M  V30 586 1 346 374
M  V30 587 1 373 374
M  V30 588 1 374 375
M  V30 589 1 375 97
M  V30 590 1 376 77
M  V30 591 1 376 377
M  V30 592 1 365 377
M  V30 593 1 377 379
M  V30 594 1 79 380
M  V30 595 1 368 364
M  V30 596 1 361 378
M  V30 597 1 364 381
M  V30 598 1 366 381
M  V30 599 1 75 379
M  V30 600 1 378 380
M  V30 601 1 379 380
M  V30 602 1 381 76
M  V30 603 1 348 382
M  V30 604 1 382 383
M  V30 605 1 382 377
M  V30 606 1 376 384
M  V30 607 1 350 383
M  V30 608 1 383 384
M  V30 609 1 380 385
M  V30 610 1 381 387
M  V30 611 1 370 387
M  V30 612 1 385 386
M  V30 613 1 386 378
M  V30 614 1 387 52
M  V30 615 1 371 72
M  V30 616 1 386 388
M  V30 617 1 388 367
M  V30 618 1 369 387
M  V30 619 1 379 389
M  V30 620 1 23 390
M  V30 621 1 385 390
M  V30 622 1 389 18
M  V30 623 1 389 390
M  V30 624 1 388 391
M  V30 625 1 311 391
M  V30 626 1 392 352
M  V30 627 1 392 397
M  V30 628 1 383 393
M  V30 629 1 393 384
M  V30 630 1 393 395
M  V30 631 1 394 397
M  V30 632 1 394 396
M  V30 633 1 395 396
M  V30 634 1 396 397
M  V30 635 1 397 398
M  V30 636 1 88 399
M  V30 637 1 395 399
M  V30 638 1 399 393
M  V30 639 1 396 400
M  V30 640 1 400 177
M  V30 641 1 400 399
M  V30 642 1 396 401
M  V30 643 1 176 400
M  V30 644 1 401 397
M  V30 645 1 390 391
M  V30 END BOND
M  V30 END CTAB
M  END
