	184

C	19.180000	-2.401000	71.138000
C	19.914000	-2.559000	72.324000
C	18.223000	-3.376000	70.840000
C	20.538000	0.000000	71.479000
C	19.464000	-1.316000	70.405000
C	19.788000	-3.621000	73.199000
C	20.702000	-1.576000	72.608000
C	18.036000	-4.436000	71.729000
C	17.348000	-3.422000	69.616000
C	23.296000	0.025000	71.138000
C	19.137000	2.376000	71.138000
C	23.066000	0.740000	72.324000
C	18.633000	1.820000	72.324000
C	21.820000	0.930000	72.608000
C	19.091000	0.646000	72.608000
C	22.215000	-0.272000	70.405000
C	19.935000	1.588000	70.405000
C	18.799000	-4.534000	72.875000
C	17.534000	-2.286000	68.790000
C	24.619000	-0.317000	70.840000
C	18.772000	3.692000	70.840000
C	24.049000	1.161000	73.199000
C	17.776000	2.460000	73.199000
C	16.838000	-1.905000	67.667000
C	25.630000	0.052000	71.729000
C	25.096000	-1.051000	69.616000
C	17.947000	4.384000	71.729000
C	19.169000	4.473000	69.616000
C	25.333000	0.761000	72.875000
C	17.481000	3.772000	72.875000
C	15.959000	-2.794000	67.052000
C	17.006000	-0.660000	67.116000
C	24.019000	-1.458000	68.790000
C	20.060000	3.744000	68.790000
C	15.213000	-2.353000	65.959000
C	16.172000	-0.180000	66.086000
C	18.015000	0.176000	67.636000
C	24.037000	-2.252000	67.667000
C	20.738000	4.157000	67.667000
C	15.269000	-1.062000	65.471000
C	16.248000	1.129000	65.660000
C	18.129000	1.498000	67.186000
C	25.247000	-2.568000	67.052000
C	22.875000	-2.728000	67.116000
C	20.407000	5.363000	67.052000
C	21.732000	3.388000	67.116000
C	17.254000	1.928000	66.186000
C	15.303000	1.711000	64.815000
C	25.238000	-3.435000	65.959000
C	22.876000	-3.691000	66.086000
C	21.647000	-2.273000	67.636000
C	21.162000	5.788000	65.959000
C	22.565000	3.870000	66.086000
C	21.952000	2.097000	67.636000
C	14.558000	2.833000	64.766000
C	24.092000	-4.032000	65.471000
C	21.704000	-4.279000	65.660000
C	20.445000	-2.835000	67.186000
C	22.253000	5.094000	65.471000
C	23.661000	3.150000	65.660000
C	23.039000	1.338000	67.186000
C	13.717000	3.134000	63.787000
C	20.510000	-3.808000	66.186000
C	21.674000	-5.389000	64.815000
C	23.850000	1.880000	66.186000
C	24.637000	3.678000	64.815000
C	13.099000	4.407000	63.919000
C	13.362000	2.362000	62.741000
C	21.074000	-6.595000	64.766000
C	25.981000	3.762000	64.766000
C	12.206000	4.656000	62.937000
C	12.469000	2.650000	61.817000
C	13.960000	1.103000	62.483000
C	21.234000	-7.474000	63.787000
C	26.662000	4.340000	63.787000
C	11.843000	3.940000	61.883000
C	13.177000	0.050000	61.016000
C	12.195000	1.761000	60.812000
C	20.440000	-8.646000	63.919000
C	22.080000	-7.396000	62.741000
C	28.074000	4.238000	63.919000
C	26.171000	5.034000	62.741000
C	13.262000	-2.364000	62.430000
C	11.978000	-1.914000	62.544000
C	14.503000	0.144000	58.541000
C	13.231000	-0.525000	58.315000
C	14.696000	0.436000	59.837000
C	14.032000	-1.574000	61.752000
C	12.491000	-0.662000	59.386000
C	11.679000	-0.706000	61.998000
C	20.671000	-9.544000	62.937000
C	22.277000	-8.313000	61.817000
C	22.872000	-6.248000	62.483000
C	28.736000	4.888000	62.937000
C	26.868000	5.663000	61.817000
C	24.782000	5.146000	62.483000
C	13.554000	-3.602000	62.940000
C	10.969000	-2.693000	63.272000
C	15.388000	0.365000	57.488000
C	12.917000	-0.912000	57.020000
C	21.473000	-9.500000	61.883000
C	24.175000	-6.399000	61.016000
C	23.184000	-8.105000	60.812000
C	28.297000	5.560000	61.883000
C	24.261000	6.350000	61.016000
C	26.234000	6.344000	60.812000
C	12.635000	-4.322000	63.659000
C	14.936000	-4.224000	62.794000
C	11.362000	-3.856000	63.861000
C	15.052000	-0.043000	56.186000
C	16.675000	1.056000	57.586000
C	13.850000	-0.742000	56.014000
C	26.223000	-5.119000	62.430000
C	26.475000	-6.456000	62.544000
C	23.431000	-5.299000	58.541000
C	24.645000	-6.065000	58.315000
C	23.081000	-5.277000	59.837000
C	25.154000	-4.847000	61.752000
C	25.134000	-6.638000	59.386000
C	25.579000	-7.319000	61.998000
C	22.128000	7.483000	62.430000
C	23.160000	8.370000	62.544000
C	23.680000	5.154000	58.541000
C	23.737000	6.590000	58.315000
C	23.836000	4.841000	59.837000
C	22.427000	6.421000	61.752000
C	23.988000	7.299000	59.386000
C	24.356000	8.025000	61.998000
C	15.839000	-3.511000	62.199000
C	16.987000	1.526000	58.793000
C	27.149000	-4.247000	62.940000
C	27.654000	-6.940000	63.272000
C	22.797000	-4.642000	57.488000
C	25.138000	-6.143000	57.020000
C	20.911000	7.849000	62.940000
C	22.990000	9.633000	63.272000
C	23.428000	4.278000	57.488000
C	23.558000	7.056000	57.020000
C	17.162000	-3.957000	61.861000
C	18.058000	2.396000	59.220000
C	28.232000	-4.683000	63.659000
C	26.997000	-2.739000	62.794000
C	28.465000	-6.019000	63.861000
C	23.318000	-4.729000	56.186000
C	21.554000	-3.874000	57.586000
C	24.524000	-5.421000	56.014000
C	20.746000	9.005000	63.659000
C	19.680000	6.963000	62.794000
C	21.787000	9.875000	63.861000
C	23.244000	4.772000	56.186000
C	23.384000	2.817000	57.586000
C	23.240000	6.163000	56.014000
C	17.791000	-4.840000	62.670000
C	17.809000	-3.370000	60.727000
C	17.931000	3.146000	60.341000
C	19.256000	2.422000	58.428000
C	25.928000	-2.314000	62.199000
C	20.992000	-3.838000	58.793000
C	19.847000	5.825000	62.199000
C	23.635000	2.312000	58.793000
C	19.080000	-5.286000	62.265000
C	19.117000	-3.831000	60.341000
C	17.174000	-2.390000	59.874000
C	16.756000	3.161000	61.144000
C	18.983000	4.048000	60.727000
C	20.265000	3.322000	58.807000
C	25.653000	-0.944000	61.861000
C	19.703000	-3.346000	59.220000
C	18.798000	4.902000	61.861000
C	23.853000	0.950000	59.220000
C	19.692000	-4.856000	61.144000
C	17.797000	-1.898000	58.807000
C	16.689000	3.906000	62.265000
C	20.150000	4.109000	59.874000
C	26.103000	0.041000	62.670000
C	24.821000	-0.678000	60.727000
C	19.081000	-2.321000	58.428000
C	17.720000	4.799000	62.670000
C	24.566000	0.685000	60.341000
C	23.277000	-0.101000	58.428000
C	25.845000	1.380000	62.265000
C	24.290000	-1.718000	59.874000
C	25.166000	1.695000	61.144000
C	23.552000	-1.425000	58.807000
