
     RDKit          3D

  0  0  0  0  0  0  0  0  0  0999 V3000
M  V30 BEGIN CTAB
M  V30 COUNTS 260 324 0 0 0
M  V30 BEGIN ATOM
M  V30 1 F 19.431000 21.602000 22.497000 0
M  V30 2 F 22.637000 10.427000 8.821000 0
M  V30 3 F 7.794000 8.940000 17.805000 0
M  V30 4 F 10.726000 23.321000 7.427000 0
M  V30 5 F 11.695000 12.436000 8.080000 0
M  V30 6 F 9.932000 12.317000 10.486000 0
M  V30 7 F 12.258000 15.298000 7.478000 0
M  V30 8 F 14.299000 11.118000 8.814000 0
M  V30 9 F 5.704000 9.132000 17.666000 0
M  V30 10 F 7.467000 9.751000 15.756000 0
M  V30 11 F 11.433000 21.366000 6.789000 0
M  V30 12 F 11.756000 23.663000 5.553000 0
M  V30 13 F 20.489000 9.951000 8.916000 0
M  V30 14 F 22.703000 8.263000 9.096000 0
M  V30 15 F 4.817000 8.788000 18.611000 0
M  V30 16 F 3.450000 8.811000 18.409000 0
M  V30 17 F 2.966000 9.235000 17.197000 0
M  V30 18 F 3.857000 9.607000 16.201000 0
M  V30 19 F 5.210000 9.532000 16.481000 0
M  V30 20 F 6.224000 9.867000 15.473000 0
M  V30 21 F 8.374000 10.127000 14.745000 0
M  V30 22 F 8.941000 9.044000 14.114000 0
M  V30 23 F 9.864000 9.249000 13.112000 0
M  V30 24 F 10.259000 10.513000 12.721000 0
M  V30 25 F 9.663000 11.592000 13.359000 0
M  V30 26 F 8.711000 11.406000 14.342000 0
M  V30 27 F 11.253000 10.676000 11.632000 0
M  V30 28 F 11.035000 11.494000 10.525000 0
M  V30 29 F 12.027000 11.527000 9.539000 0
M  V30 30 F 13.244000 10.871000 9.686000 0
M  V30 31 F 13.455000 10.048000 10.784000 0
M  V30 32 F 12.446000 9.951000 11.728000 0
M  V30 33 F 10.074000 13.596000 9.933000 0
M  V30 34 F 9.423000 14.703000 10.474000 0
M  V30 35 F 9.681000 15.977000 10.017000 0
M  V30 36 F 10.618000 16.191000 8.997000 0
M  V30 37 F 11.267000 15.093000 8.435000 0
M  V30 38 F 10.964000 13.805000 8.880000 0
M  V30 39 F 10.851000 17.595000 8.558000 0
M  V30 40 F 9.791000 18.488000 8.420000 0
M  V30 41 F 9.972000 19.743000 7.884000 0
M  V30 42 F 11.239000 20.148000 7.481000 0
M  V30 43 F 12.325000 19.311000 7.689000 0
M  V30 44 F 12.114000 18.046000 8.221000 0
M  V30 45 F 12.120000 21.315000 5.688000 0
M  V30 46 F 12.319000 22.584000 4.975000 0
M  V30 47 F 13.031000 22.659000 3.796000 0
M  V30 48 F 13.131000 23.891000 3.158000 0
M  V30 49 F 12.548000 25.002000 3.739000 0
M  V30 50 F 11.888000 24.844000 4.942000 0
M  V30 51 F 13.387000 14.489000 7.526000 0
M  V30 52 F 14.647000 15.028000 7.331000 0
M  V30 53 F 15.753000 14.228000 7.580000 0
M  V30 54 F 15.658000 12.917000 8.050000 0
M  V30 55 F 14.388000 12.369000 8.221000 0
M  V30 56 F 13.277000 13.150000 7.920000 0
M  V30 57 F 16.901000 12.164000 8.353000 0
M  V30 58 F 18.007000 12.271000 7.511000 0
M  V30 59 F 19.167000 11.559000 7.740000 0
M  V30 60 F 19.283000 10.709000 8.832000 0
M  V30 61 F 18.198000 10.616000 9.695000 0
M  V30 62 F 17.024000 11.318000 9.454000 0
M  V30 63 F 20.376000 8.742000 9.271000 0
M  V30 64 F 21.487000 7.807000 9.451000 0
M  V30 65 F 21.286000 6.528000 9.957000 0
M  V30 66 F 22.388000 5.696000 10.080000 0
M  V30 67 F 23.634000 6.152000 9.683000 0
M  V30 68 F 23.736000 7.435000 9.193000 0
M  V30 69 F 18.583000 11.115000 19.038000 0
M  V30 70 F 20.260000 11.764000 16.683000 0
M  V30 71 F 17.812000 13.661000 20.361000 0
M  V30 72 F 16.053000 9.839000 17.991000 0
M  V30 73 F 24.831000 10.671000 9.021000 0
M  V30 74 F 22.959000 10.643000 10.958000 0
M  V30 75 F 18.842000 19.497000 22.738000 0
M  V30 76 F 18.478000 21.571000 24.470000 0
M  V30 77 F 9.819000 8.491000 17.576000 0
M  V30 78 F 7.627000 6.947000 17.023000 0
M  V30 79 F 25.777000 10.685000 8.077000 0
M  V30 80 F 27.133000 10.750000 8.329000 0
M  V30 81 F 27.546000 10.816000 9.638000 0
M  V30 82 F 26.593000 10.811000 10.645000 0
M  V30 83 F 25.254000 10.732000 10.300000 0
M  V30 84 F 24.190000 10.695000 11.304000 0
M  V30 85 F 21.960000 10.583000 11.972000 0
M  V30 86 F 22.091000 9.690000 13.019000 0
M  V30 87 F 21.179000 9.681000 14.057000 0
M  V30 88 F 20.075000 10.513000 14.084000 0
M  V30 89 F 19.927000 11.378000 13.004000 0
M  V30 90 F 20.858000 11.415000 11.978000 0
M  V30 91 F 19.069000 10.364000 15.167000 0
M  V30 92 F 19.241000 10.881000 16.448000 0
M  V30 93 F 18.281000 10.578000 17.411000 0
M  V30 94 F 17.112000 9.890000 17.104000 0
M  V30 95 F 16.927000 9.388000 15.834000 0
M  V30 96 F 17.930000 9.611000 14.899000 0
M  V30 97 F 20.055000 12.834000 17.540000 0
M  V30 98 F 20.628000 14.075000 17.311000 0
M  V30 99 F 20.384000 15.117000 18.196000 0
M  V30 100 F 19.482000 15.000000 19.248000 0
M  V30 101 F 18.857000 13.773000 19.459000 0
M  V30 102 F 19.215000 12.689000 18.653000 0
M  V30 103 F 19.281000 16.195000 20.121000 0
M  V30 104 F 20.386000 16.935000 20.554000 0
M  V30 105 F 20.261000 18.018000 21.399000 0
M  V30 106 F 18.996000 18.395000 21.856000 0
M  V30 107 F 17.883000 17.693000 21.405000 0
M  V30 108 F 18.033000 16.605000 20.560000 0
M  V30 109 F 18.228000 19.306000 23.827000 0
M  V30 110 F 17.982000 20.366000 24.810000 0
M  V30 111 F 17.257000 20.148000 25.974000 0
M  V30 112 F 17.013000 21.250000 26.781000 0
M  V30 113 F 17.493000 22.491000 26.456000 0
M  V30 114 F 18.228000 22.607000 25.289000 0
M  V30 115 F 16.755000 12.820000 20.085000 0
M  V30 116 F 15.465000 13.164000 20.431000 0
M  V30 117 F 14.420000 12.359000 20.007000 0
M  V30 118 F 14.589000 11.229000 19.209000 0
M  V30 119 F 15.887000 10.876000 18.872000 0
M  V30 120 F 16.949000 11.639000 19.354000 0
M  V30 121 F 13.373000 10.541000 18.698000 0
M  V30 122 F 12.253000 10.425000 19.489000 0
M  V30 123 F 11.122000 9.751000 19.077000 0
M  V30 124 F 11.057000 9.156000 17.835000 0
M  V30 125 F 12.167000 9.309000 16.989000 0
M  V30 126 F 13.294000 9.997000 17.423000 0
M  V30 127 F 9.954000 7.379000 16.941000 0
M  V30 128 F 8.823000 6.528000 16.574000 0
M  V30 129 F 8.989000 5.352000 15.855000 0
M  V30 130 F 7.891000 4.534000 15.600000 0
M  V30 131 F 6.651000 4.933000 16.099000 0
M  V30 132 F 6.585000 6.138000 16.782000 0
M  V30 133 F 20.822000 20.943000 11.461000 0
M  V30 134 F 21.179000 20.264000 14.348000 0
M  V30 135 F 20.635000 18.371000 9.945000 0
M  V30 136 F 18.174000 22.375000 11.196000 0
M  V30 137 F 21.315000 21.319000 23.303000 0
M  V30 138 F 20.654000 21.273000 20.710000 0
M  V30 139 F 22.257000 12.494000 8.263000 0
M  V30 140 F 22.877000 10.369000 6.684000 0
M  V30 141 F 12.544000 23.891000 8.429000 0
M  V30 142 F 10.349000 25.421000 7.719000 0
M  V30 143 F 21.622000 21.324000 24.606000 0
M  V30 144 F 22.916000 21.208000 25.087000 0
M  V30 145 F 23.921000 21.064000 24.191000 0
M  V30 146 F 23.640000 21.064000 22.822000 0
M  V30 147 F 22.323000 21.194000 22.425000 0
M  V30 148 F 21.899000 21.189000 21.020000 0
M  V30 149 F 20.315000 21.250000 19.336000 0
M  V30 150 F 21.198000 20.766000 18.379000 0
M  V30 151 F 20.893000 20.882000 17.035000 0
M  V30 152 F 19.732000 21.487000 16.589000 0
M  V30 153 F 18.847000 21.929000 17.567000 0
M  V30 154 F 19.127000 21.803000 18.912000 0
M  V30 155 F 19.445000 21.710000 15.143000 0
M  V30 156 F 20.164000 21.166000 14.081000 0
M  V30 157 F 19.803000 21.492000 12.766000 0
M  V30 158 F 18.662000 22.245000 12.474000 0
M  V30 159 F 17.941000 22.775000 13.542000 0
M  V30 160 F 18.347000 22.524000 14.836000 0
M  V30 161 F 21.438000 19.213000 13.461000 0
M  V30 162 F 21.827000 17.976000 13.927000 0
M  V30 163 F 21.876000 16.907000 13.058000 0
M  V30 164 F 21.522000 17.018000 11.710000 0
M  V30 165 F 21.108000 18.255000 11.235000 0
M  V30 166 F 21.140000 19.348000 12.104000 0
M  V30 167 F 21.699000 15.819000 10.838000 0
M  V30 168 F 22.785000 14.968000 10.976000 0
M  V30 169 F 22.979000 13.870000 10.164000 0
M  V30 170 F 22.059000 13.582000 9.163000 0
M  V30 171 F 20.945000 14.410000 9.042000 0
M  V30 172 F 20.773000 15.512000 9.863000 0
M  V30 173 F 22.404000 12.671000 7.018000 0
M  V30 174 F 22.758000 11.573000 6.112000 0
M  V30 175 F 23.031000 11.806000 4.771000 0
M  V30 176 F 23.496000 10.750000 3.998000 0
M  V30 177 F 23.652000 9.504000 4.599000 0
M  V30 178 F 23.311000 9.360000 5.917000 0
M  V30 179 F 19.579000 19.246000 9.728000 0
M  V30 180 F 18.557000 18.920000 8.847000 0
M  V30 181 F 17.480000 19.780000 8.705000 0
M  V30 182 F 17.355000 20.961000 9.448000 0
M  V30 183 F 18.363000 21.282000 10.363000 0
M  V30 184 F 19.483000 20.445000 10.441000 0
M  V30 185 F 16.143000 21.798000 9.217000 0
M  V30 186 F 15.640000 21.980000 7.929000 0
M  V30 187 F 14.459000 22.668000 7.713000 0
M  V30 188 F 13.752000 23.221000 8.759000 0
M  V30 189 F 14.259000 23.077000 10.038000 0
M  V30 190 F 15.438000 22.380000 10.260000 0
M  V30 191 F 12.528000 25.156000 8.648000 0
M  V30 192 F 11.410000 26.025000 8.278000 0
M  V30 193 F 11.487000 27.415000 8.392000 0
M  V30 194 F 10.470000 28.206000 7.854000 0
M  V30 195 F 9.395000 27.592000 7.243000 0
M  V30 196 F 9.383000 26.216000 7.207000 0
M  V30 197 F 9.289000 19.958000 18.033000 0
M  V30 198 F 8.944000 19.999000 15.046000 0
M  V30 199 F 9.541000 17.107000 18.885000 0
M  V30 200 F 11.838000 21.338000 18.674000 0
M  V30 201 F 8.697000 23.212000 6.585000 0
M  V30 202 F 9.565000 22.626000 9.172000 0
M  V30 203 F 8.037000 10.867000 18.921000 0
M  V30 204 F 7.678000 8.384000 19.964000 0
M  V30 205 F 17.517000 22.315000 21.646000 0
M  V30 206 F 19.657000 23.728000 22.605000 0
M  V30 207 F 8.216000 23.463000 5.363000 0
M  V30 208 F 6.875000 23.547000 5.054000 0
M  V30 209 F 5.952000 23.375000 6.064000 0
M  V30 210 F 6.408000 23.133000 7.352000 0
M  V30 211 F 7.788000 23.045000 7.571000 0
M  V30 212 F 8.325000 22.724000 8.895000 0
M  V30 213 F 9.826000 22.254000 10.510000 0
M  V30 214 F 9.033000 21.399000 11.259000 0
M  V30 215 F 9.305000 21.189000 12.601000 0
M  V30 216 F 10.377000 21.789000 13.223000 0
M  V30 217 F 11.193000 22.594000 12.444000 0
M  V30 218 F 10.916000 22.840000 11.118000 0
M  V30 219 F 10.655000 21.636000 14.682000 0
M  V30 220 F 9.917000 20.845000 15.549000 0
M  V30 221 F 10.274000 20.854000 16.902000 0
M  V30 222 F 11.389000 21.552000 17.374000 0
M  V30 223 F 12.130000 22.338000 16.511000 0
M  V30 224 F 11.730000 22.361000 15.194000 0
M  V30 225 F 8.763000 18.748000 15.645000 0
M  V30 226 F 8.431000 17.623000 14.893000 0
M  V30 227 F 8.404000 16.377000 15.491000 0
M  V30 228 F 8.733000 16.167000 16.833000 0
M  V30 229 F 9.066000 17.293000 17.600000 0
M  V30 230 F 9.025000 18.567000 17.008000 0
M  V30 231 F 8.621000 14.782000 17.362000 0
M  V30 232 F 7.589000 13.959000 16.920000 0
M  V30 233 F 7.418000 12.680000 17.420000 0
M  V30 234 F 8.259000 12.178000 18.409000 0
M  V30 235 F 9.315000 12.982000 18.836000 0
M  V30 236 F 9.481000 14.247000 18.304000 0
M  V30 237 F 7.866000 10.746000 20.172000 0
M  V30 238 F 7.646000 9.439000 20.792000 0
M  V30 239 F 7.313000 9.309000 22.124000 0
M  V30 240 F 6.935000 8.063000 22.605000 0
M  V30 241 F 6.959000 6.965000 21.751000 0
M  V30 242 F 7.346000 7.184000 20.452000 0
M  V30 243 F 10.580000 17.925000 19.297000 0
M  V30 244 F 11.610000 17.418000 20.052000 0
M  V30 245 F 12.654000 18.251000 20.404000 0
M  V30 246 F 12.762000 19.585000 20.013000 0
M  V30 247 F 11.717000 20.078000 19.233000 0
M  V30 248 F 10.625000 19.269000 18.918000 0
M  V30 249 F 13.969000 20.357000 20.410000 0
M  V30 250 F 14.527000 20.180000 21.676000 0
M  V30 251 F 15.690000 20.822000 22.037000 0
M  V30 252 F 16.338000 21.682000 21.156000 0
M  V30 253 F 15.788000 21.891000 19.907000 0
M  V30 254 F 14.631000 21.231000 19.546000 0
M  V30 255 F 17.454000 23.603000 21.700000 0
M  V30 256 F 18.566000 24.402000 22.220000 0
M  V30 257 F 18.467000 25.779000 22.395000 0
M  V30 258 F 19.485000 26.453000 23.051000 0
M  V30 259 F 20.600000 25.765000 23.469000 0
M  V30 260 F 20.647000 24.412000 23.198000 0
M  V30 END ATOM
M  V30 BEGIN BOND
M  V30 1 1 1 138
M  V30 2 1 1 205
M  V30 3 1 1 206
M  V30 4 1 1 75
M  V30 5 1 1 137
M  V30 6 1 1 76
M  V30 7 1 2 140
M  V30 8 1 2 139
M  V30 9 1 2 13
M  V30 10 1 2 73
M  V30 11 1 2 14
M  V30 12 1 2 74
M  V30 13 1 3 10
M  V30 14 1 3 78
M  V30 15 1 3 77
M  V30 16 1 3 9
M  V30 17 1 3 203
M  V30 18 1 3 204
M  V30 19 1 4 12
M  V30 20 1 4 201
M  V30 21 1 4 11
M  V30 22 1 4 142
M  V30 23 1 4 141
M  V30 24 1 4 202
M  V30 25 1 5 56
M  V30 26 1 5 38
M  V30 27 1 5 29
M  V30 28 1 6 33
M  V30 29 1 6 28
M  V30 30 1 7 51
M  V30 31 1 7 37
M  V30 32 1 8 55
M  V30 33 1 8 30
M  V30 34 1 9 19
M  V30 35 1 9 15
M  V30 36 1 10 21
M  V30 37 1 10 20
M  V30 38 1 11 45
M  V30 39 1 11 42
M  V30 40 1 12 50
M  V30 41 1 12 46
M  V30 42 1 13 60
M  V30 43 1 13 63
M  V30 44 1 14 68
M  V30 45 1 14 64
M  V30 46 1 15 16
M  V30 47 1 16 17
M  V30 48 1 17 18
M  V30 49 1 18 19
M  V30 50 1 19 20
M  V30 51 1 21 22
M  V30 52 1 21 26
M  V30 53 1 22 23
M  V30 54 1 23 24
M  V30 55 1 24 27
M  V30 56 1 24 25
M  V30 57 1 25 26
M  V30 58 1 27 28
M  V30 59 1 27 32
M  V30 60 1 28 29
M  V30 61 1 29 30
M  V30 62 1 30 31
M  V30 63 1 31 32
M  V30 64 1 33 38
M  V30 65 1 33 34
M  V30 66 1 34 35
M  V30 67 1 35 36
M  V30 68 1 36 37
M  V30 69 1 36 39
M  V30 70 1 37 38
M  V30 71 1 39 44
M  V30 72 1 39 40
M  V30 73 1 40 41
M  V30 74 1 41 42
M  V30 75 1 42 43
M  V30 76 1 43 44
M  V30 77 1 45 46
M  V30 78 1 46 47
M  V30 79 1 47 48
M  V30 80 1 48 49
M  V30 81 1 49 50
M  V30 82 1 51 52
M  V30 83 1 51 56
M  V30 84 1 52 53
M  V30 85 1 53 54
M  V30 86 1 54 55
M  V30 87 1 54 57
M  V30 88 1 55 56
M  V30 89 1 57 58
M  V30 90 1 57 62
M  V30 91 1 58 59
M  V30 92 1 59 60
M  V30 93 1 60 61
M  V30 94 1 61 62
M  V30 95 1 63 64
M  V30 96 1 64 65
M  V30 97 1 65 66
M  V30 98 1 66 67
M  V30 99 1 67 68
M  V30 100 1 69 93
M  V30 101 1 69 102
M  V30 102 1 69 120
M  V30 103 1 70 92
M  V30 104 1 70 97
M  V30 105 1 71 101
M  V30 106 1 71 115
M  V30 107 1 72 94
M  V30 108 1 72 119
M  V30 109 1 73 79
M  V30 110 1 73 83
M  V30 111 1 74 84
M  V30 112 1 74 85
M  V30 113 1 75 106
M  V30 114 1 75 109
M  V30 115 1 76 110
M  V30 116 1 76 114
M  V30 117 1 77 127
M  V30 118 1 77 124
M  V30 119 1 78 128
M  V30 120 1 78 132
M  V30 121 1 79 80
M  V30 122 1 80 81
M  V30 123 1 81 82
M  V30 124 1 82 83
M  V30 125 1 83 84
M  V30 126 1 85 90
M  V30 127 1 85 86
M  V30 128 1 86 87
M  V30 129 1 87 88
M  V30 130 1 88 89
M  V30 131 1 88 91
M  V30 132 1 89 90
M  V30 133 1 91 96
M  V30 134 1 91 92
M  V30 135 1 92 93
M  V30 136 1 93 94
M  V30 137 1 94 95
M  V30 138 1 95 96
M  V30 139 1 97 98
M  V30 140 1 97 102
M  V30 141 1 98 99
M  V30 142 1 99 100
M  V30 143 1 100 101
M  V30 144 1 100 103
M  V30 145 1 101 102
M  V30 146 1 103 104
M  V30 147 1 103 108
M  V30 148 1 104 105
M  V30 149 1 105 106
M  V30 150 1 106 107
M  V30 151 1 107 108
M  V30 152 1 109 110
M  V30 153 1 110 111
M  V30 154 1 111 112
M  V30 155 1 112 113
M  V30 156 1 113 114
M  V30 157 1 115 120
M  V30 158 1 115 116
M  V30 159 1 116 117
M  V30 160 1 117 118
M  V30 161 1 118 121
M  V30 162 1 118 119
M  V30 163 1 119 120
M  V30 164 1 121 126
M  V30 165 1 121 122
M  V30 166 1 122 123
M  V30 167 1 123 124
M  V30 168 1 124 125
M  V30 169 1 125 126
M  V30 170 1 127 128
M  V30 171 1 128 129
M  V30 172 1 129 130
M  V30 173 1 130 131
M  V30 174 1 131 132
M  V30 175 1 133 184
M  V30 176 1 133 166
M  V30 177 1 133 157
M  V30 178 1 134 161
M  V30 179 1 134 156
M  V30 180 1 135 179
M  V30 181 1 135 165
M  V30 182 1 136 183
M  V30 183 1 136 158
M  V30 184 1 137 147
M  V30 185 1 137 143
M  V30 186 1 138 149
M  V30 187 1 138 148
M  V30 188 1 139 173
M  V30 189 1 139 170
M  V30 190 1 140 178
M  V30 191 1 140 174
M  V30 192 1 141 191
M  V30 193 1 141 188
M  V30 194 1 142 196
M  V30 195 1 142 192
M  V30 196 1 143 144
M  V30 197 1 144 145
M  V30 198 1 145 146
M  V30 199 1 146 147
M  V30 200 1 147 148
M  V30 201 1 149 150
M  V30 202 1 149 154
M  V30 203 1 150 151
M  V30 204 1 151 152
M  V30 205 1 152 155
M  V30 206 1 152 153
M  V30 207 1 153 154
M  V30 208 1 155 156
M  V30 209 1 155 160
M  V30 210 1 156 157
M  V30 211 1 157 158
M  V30 212 1 158 159
M  V30 213 1 159 160
M  V30 214 1 161 166
M  V30 215 1 161 162
M  V30 216 1 162 163
M  V30 217 1 163 164
M  V30 218 1 164 167
M  V30 219 1 164 165
M  V30 220 1 165 166
M  V30 221 1 167 172
M  V30 222 1 167 168
M  V30 223 1 168 169
M  V30 224 1 169 170
M  V30 225 1 170 171
M  V30 226 1 171 172
M  V30 227 1 173 174
M  V30 228 1 174 175
M  V30 229 1 175 176
M  V30 230 1 176 177
M  V30 231 1 177 178
M  V30 232 1 179 180
M  V30 233 1 179 184
M  V30 234 1 180 181
M  V30 235 1 181 182
M  V30 236 1 182 185
M  V30 237 1 182 183
M  V30 238 1 183 184
M  V30 239 1 185 186
M  V30 240 1 185 190
M  V30 241 1 186 187
M  V30 242 1 187 188
M  V30 243 1 188 189
M  V30 244 1 189 190
M  V30 245 1 191 192
M  V30 246 1 192 193
M  V30 247 1 193 194
M  V30 248 1 194 195
M  V30 249 1 195 196
M  V30 250 1 197 221
M  V30 251 1 197 230
M  V30 252 1 197 248
M  V30 253 1 198 220
M  V30 254 1 198 225
M  V30 255 1 199 229
M  V30 256 1 199 243
M  V30 257 1 200 222
M  V30 258 1 200 247
M  V30 259 1 201 207
M  V30 260 1 201 211
M  V30 261 1 202 212
M  V30 262 1 202 213
M  V30 263 1 203 234
M  V30 264 1 203 237
M  V30 265 1 204 242
M  V30 266 1 204 238
M  V30 267 1 205 252
M  V30 268 1 205 255
M  V30 269 1 206 256
M  V30 270 1 206 260
M  V30 271 1 207 208
M  V30 272 1 208 209
M  V30 273 1 209 210
M  V30 274 1 210 211
M  V30 275 1 211 212
M  V30 276 1 213 218
M  V30 277 1 213 214
M  V30 278 1 214 215
M  V30 279 1 215 216
M  V30 280 1 216 217
M  V30 281 1 216 219
M  V30 282 1 217 218
M  V30 283 1 219 224
M  V30 284 1 219 220
M  V30 285 1 220 221
M  V30 286 1 221 222
M  V30 287 1 222 223
M  V30 288 1 223 224
M  V30 289 1 225 226
M  V30 290 1 225 230
M  V30 291 1 226 227
M  V30 292 1 227 228
M  V30 293 1 228 231
M  V30 294 1 228 229
M  V30 295 1 229 230
M  V30 296 1 231 232
M  V30 297 1 231 236
M  V30 298 1 232 233
M  V30 299 1 233 234
M  V30 300 1 234 235
M  V30 301 1 235 236
M  V30 302 1 237 238
M  V30 303 1 238 239
M  V30 304 1 239 240
M  V30 305 1 240 241
M  V30 306 1 241 242
M  V30 307 1 243 248
M  V30 308 1 243 244
M  V30 309 1 244 245
M  V30 310 1 245 246
M  V30 311 1 246 247
M  V30 312 1 246 249
M  V30 313 1 247 248
M  V30 314 1 249 254
M  V30 315 1 249 250
M  V30 316 1 250 251
M  V30 317 1 251 252
M  V30 318 1 252 253
M  V30 319 1 253 254
M  V30 320 1 255 256
M  V30 321 1 256 257
M  V30 322 1 257 258
M  V30 323 1 258 259
M  V30 324 1 259 260
M  V30 END BOND
M  V30 END CTAB
M  END
