	260

C	2.481000	22.012000	16.083000
C	15.083000	34.349000	14.643000
C	4.324000	32.712000	13.871000
C	12.880000	23.762000	12.804000
C	3.060000	30.025000	13.821000
C	7.173000	32.410000	14.677000
C	4.262000	33.829000	11.095000
C	14.014000	26.504000	12.421000
C	10.267000	24.063000	14.218000
C	12.374000	22.588000	10.119000
C	15.556000	33.762000	16.665000
C	13.174000	33.851000	15.413000
C	1.577000	35.038000	5.359000
C	1.070000	36.470000	3.122000
C	1.808000	24.075000	15.561000
C	0.287000	21.863000	16.030000
C	13.286000	19.897000	1.711000
C	13.321000	19.195000	2.911000
C	13.332000	17.808000	2.905000
C	13.311000	17.117000	1.700000
C	13.277000	17.816000	0.498000
C	13.266000	19.209000	0.504000
C	13.343000	21.272000	4.035000
C	15.595000	32.405000	13.803000
C	17.114000	34.599000	13.944000
C	2.631000	22.530000	18.141000
C	4.549000	22.490000	16.272000
C	16.788000	33.654000	17.232000
C	16.938000	33.175000	18.516000
C	15.889000	32.777000	19.209000
C	14.624000	32.835000	18.643000
C	14.518000	33.372000	17.351000
C	13.199000	33.431000	16.633000
C	11.924000	33.798000	14.788000
C	16.690000	32.396000	13.193000
C	11.257000	32.629000	14.594000
C	10.038000	32.611000	14.027000
C	9.407000	33.739000	13.551000
C	10.104000	34.939000	13.691000
C	11.386000	34.975000	14.323000
C	8.069000	33.807000	12.944000
C	6.961000	33.225000	13.529000
C	5.681000	33.350000	13.020000
C	5.503000	33.896000	11.764000
C	6.546000	34.523000	11.126000
C	7.822000	34.509000	11.739000
C	3.475000	32.669000	11.292000
C	3.448000	31.976000	12.544000
C	2.879000	30.763000	12.670000
C	2.129000	30.239000	11.627000
C	2.016000	31.022000	10.458000
C	2.692000	32.186000	10.223000
C	2.483000	32.987000	8.950000
C	1.188000	33.148000	8.491000
C	0.891000	33.824000	7.376000
C	1.915000	34.326000	6.636000
C	3.204000	34.183000	7.055000
C	3.485000	33.471000	8.181000
C	1.718000	36.264000	5.391000
C	0.769000	37.128000	2.024000
C	0.734000	38.498000	1.927000
C	0.969000	39.196000	3.168000
C	1.339000	38.489000	4.309000
C	1.355000	37.115000	4.269000
C	5.022000	31.259000	14.514000
C	6.389000	31.295000	14.893000
C	6.937000	30.131000	15.463000
C	6.150000	29.017000	15.557000
C	4.828000	28.909000	14.998000
C	4.345000	30.069000	14.464000
C	4.076000	27.669000	15.074000
C	3.290000	27.168000	14.067000
C	2.558000	26.008000	14.200000
C	2.594000	25.239000	15.387000
C	3.406000	25.709000	16.412000
C	4.134000	26.917000	16.264000
C	0.590000	24.146000	15.373000
C	-0.261000	22.982000	15.604000
C	-1.651000	23.112000	15.449000
C	-2.393000	21.948000	15.763000
C	-1.820000	20.811000	16.181000
C	-0.429000	20.722000	16.254000
C	13.315000	19.988000	4.063000
C	13.609000	24.249000	8.895000
C	14.299000	25.422000	8.935000
C	14.446000	26.255000	10.065000
C	13.982000	25.704000	11.270000
C	13.431000	24.478000	11.259000
C	13.136000	23.739000	10.130000
C	11.281000	22.521000	10.970000
C	10.112000	21.989000	10.581000
C	8.997000	21.957000	11.483000
C	9.026000	22.624000	12.713000
C	10.198000	23.273000	13.082000
C	11.383000	23.081000	12.259000
C	7.796000	22.647000	13.558000
C	7.039000	21.469000	13.709000
C	5.965000	21.375000	14.576000
C	5.640000	22.526000	15.294000
C	6.313000	23.703000	15.124000
C	7.395000	23.806000	14.262000
C	4.864000	22.866000	17.444000
C	3.865000	22.924000	18.477000
C	4.145000	23.488000	19.729000
C	3.111000	23.640000	20.649000
C	1.885000	23.269000	20.281000
C	1.645000	22.678000	19.065000
C	11.069000	25.207000	14.240000
C	12.310000	25.212000	13.522000
C	12.931000	26.402000	13.323000
C	12.554000	27.602000	13.976000
C	11.399000	27.459000	14.774000
C	10.639000	26.317000	14.911000
C	13.309000	28.806000	13.883000
C	13.741000	29.402000	12.674000
C	14.457000	30.498000	12.623000
C	14.808000	31.206000	13.810000
C	14.351000	30.677000	15.005000
C	13.587000	29.505000	15.019000
C	17.512000	33.596000	13.190000
C	18.726000	33.681000	12.461000
C	19.477000	34.814000	12.519000
C	19.065000	35.879000	13.284000
C	17.853000	35.736000	14.002000
C	12.860000	23.869000	6.514000
C	13.512000	23.358000	7.632000
C	14.117000	22.109000	7.575000
C	14.072000	21.366000	6.402000
C	13.420000	21.877000	5.283000
C	12.815000	23.126000	5.337000
C	13.473000	22.012000	1.961000
C	0.871000	34.349000	3.401000
C	11.631000	32.712000	4.172000
C	3.074000	23.762000	5.239000
C	12.894000	30.025000	4.222000
C	8.781000	32.410000	3.367000
C	11.693000	33.829000	6.948000
C	1.941000	26.504000	5.623000
C	5.687000	24.063000	3.826000
C	3.581000	22.588000	7.925000
C	0.398000	33.762000	1.379000
C	2.780000	33.851000	2.631000
C	14.378000	35.038000	12.685000
C	14.885000	36.470000	14.922000
C	14.146000	24.075000	2.483000
C	15.668000	21.863000	2.014000
C	2.668000	19.897000	16.333000
C	2.634000	19.195000	15.132000
C	2.622000	17.808000	15.139000
C	2.643000	17.117000	16.344000
C	2.677000	17.816000	17.546000
C	2.689000	19.209000	17.539000
C	2.612000	21.272000	14.009000
C	0.360000	32.405000	4.240000
C	-1.160000	34.599000	4.099000
C	13.323000	22.530000	-0.097000
C	11.406000	22.490000	1.772000
C	-0.834000	33.654000	0.812000
C	-0.983000	33.175000	-0.473000
C	0.065000	32.777000	-1.166000
C	1.330000	32.835000	-0.599000
C	1.437000	33.372000	0.693000
C	2.756000	33.431000	1.411000
C	4.031000	33.798000	3.255000
C	-0.735000	32.396000	4.850000
C	4.697000	32.629000	3.450000
C	5.916000	32.611000	4.016000
C	6.547000	33.739000	4.493000
C	5.850000	34.939000	4.352000
C	4.568000	34.975000	3.721000
C	7.886000	33.807000	5.099000
C	8.993000	33.225000	4.514000
C	10.273000	33.350000	5.023000
C	10.452000	33.896000	6.279000
C	9.408000	34.523000	6.918000
C	8.133000	34.509000	6.304000
C	12.480000	32.669000	6.752000
C	12.507000	31.976000	5.500000
C	13.075000	30.763000	5.373000
C	13.826000	30.239000	6.416000
C	13.939000	31.022000	7.585000
C	13.262000	32.186000	7.820000
C	13.471000	32.987000	9.094000
C	14.766000	33.148000	9.552000
C	15.063000	33.824000	10.667000
C	14.040000	34.326000	11.407000
C	12.751000	34.183000	10.988000
C	12.470000	33.471000	9.863000
C	14.236000	36.264000	12.652000
C	15.186000	37.128000	16.019000
C	15.221000	38.498000	16.116000
C	14.985000	39.196000	14.875000
C	14.615000	38.489000	13.735000
C	14.599000	37.115000	13.774000
C	10.932000	31.259000	3.529000
C	9.565000	31.295000	3.150000
C	9.017000	30.131000	2.580000
C	9.804000	29.017000	2.486000
C	11.126000	28.909000	3.046000
C	11.610000	30.069000	3.580000
C	11.878000	27.669000	2.970000
C	12.665000	27.168000	3.977000
C	13.396000	26.008000	3.843000
C	13.360000	25.239000	2.656000
C	12.549000	25.709000	1.631000
C	11.821000	26.917000	1.779000
C	15.364000	24.146000	2.670000
C	16.216000	22.982000	2.439000
C	17.606000	23.112000	2.595000
C	18.347000	21.948000	2.281000
C	17.775000	20.811000	1.862000
C	16.383000	20.722000	1.790000
C	2.639000	19.988000	13.980000
C	2.345000	24.249000	9.148000
C	1.655000	25.422000	9.108000
C	1.508000	26.255000	7.979000
C	1.972000	25.704000	6.774000
C	2.523000	24.478000	6.784000
C	2.818000	23.739000	7.914000
C	4.673000	22.521000	7.073000
C	5.842000	21.989000	7.463000
C	6.957000	21.957000	6.561000
C	6.928000	22.624000	5.330000
C	5.757000	23.273000	4.962000
C	4.572000	23.081000	5.785000
C	8.158000	22.647000	4.486000
C	8.916000	21.469000	4.334000
C	9.990000	21.375000	3.468000
C	10.314000	22.526000	2.750000
C	9.642000	23.703000	2.919000
C	8.559000	23.806000	3.782000
C	11.091000	22.866000	0.599000
C	12.089000	22.924000	-0.433000
C	11.810000	23.488000	-1.685000
C	12.843000	23.640000	-2.605000
C	14.070000	23.269000	-2.237000
C	14.310000	22.678000	-1.021000
C	4.886000	25.207000	3.804000
C	3.644000	25.212000	4.522000
C	3.023000	26.402000	4.720000
C	3.401000	27.602000	4.067000
C	4.556000	27.459000	3.269000
C	5.315000	26.317000	3.132000
C	2.645000	28.806000	4.161000
C	2.214000	29.402000	5.370000
C	1.498000	30.498000	5.420000
C	1.146000	31.206000	4.233000
C	1.604000	30.677000	3.039000
C	2.368000	29.505000	3.024000
C	-1.558000	33.596000	4.854000
C	-2.771000	33.681000	5.583000
C	-3.523000	34.814000	5.525000
C	-3.110000	35.879000	4.760000
C	-1.898000	35.736000	4.042000
C	3.095000	23.869000	11.530000
C	2.443000	23.358000	10.411000
C	1.837000	22.109000	10.469000
C	1.882000	21.366000	11.642000
C	2.534000	21.877000	12.760000
C	3.139000	23.126000	12.706000
