	396

C	16.466000	24.860000	14.224000
C	15.836000	23.901000	15.068000
C	16.807000	24.667000	12.837000
C	16.879000	25.980000	14.904000
C	15.806000	24.522000	16.299000
C	17.621000	25.543000	12.010000
C	16.152000	23.491000	12.175000
C	16.505000	25.725000	16.211000
C	17.975000	27.596000	14.206000
C	18.073000	25.076000	10.703000
C	18.281000	26.577000	12.415000
C	14.741000	23.313000	12.121000
C	16.813000	22.439000	11.752000
C	16.734000	26.691000	17.317000
C	18.142000	28.297000	16.113000
C	19.430000	29.023000	13.628000
C	18.935000	25.937000	10.339000
C	19.032000	26.958000	11.339000
C	14.042000	22.350000	11.672000
C	16.146000	21.279000	11.237000
C	17.446000	27.789000	17.233000
C	16.017000	26.279000	18.553000
C	18.715000	29.478000	16.557000
C	19.834000	30.078000	14.304000
C	20.160000	28.983000	12.459000
C	19.936000	28.091000	11.432000
C	14.787000	21.326000	11.237000
C	11.974000	22.047000	11.978000
C	17.669000	28.807000	18.357000
C	16.611000	25.937000	19.718000
C	14.563000	26.072000	18.562000
C	18.438000	29.786000	17.935000
C	19.382000	30.352000	15.695000
C	20.702000	30.872000	13.579000
C	20.865000	30.195000	12.406000
C	20.787000	28.358000	10.090000
C	13.918000	20.117000	10.757000
C	12.643000	20.221000	11.054000
C	12.368000	21.138000	13.957000
C	10.016000	21.396000	12.739000
C	11.361000	22.821000	10.134000
C	16.044000	25.513000	20.855000
C	13.903000	25.593000	19.642000
C	19.716000	31.708000	16.122000
C	22.138000	28.361000	10.108000
C	20.123000	28.383000	8.863000
C	14.467000	19.006000	10.161000
C	11.777000	19.184000	10.730000
C	13.577000	20.916000	14.428000
C	11.277000	20.787000	14.575000
C	8.913000	21.566000	11.939000
C	9.989000	20.895000	13.988000
C	10.981000	22.498000	8.783000
C	14.765000	25.408000	20.815000
C	16.937000	25.410000	22.775000
C	20.561000	31.998000	17.273000
C	19.183000	32.828000	15.562000
C	22.861000	28.411000	8.996000
C	20.874000	28.411000	7.787000
C	13.710000	17.908000	9.974000
C	12.323000	17.911000	10.263000
C	13.789000	20.209000	15.619000
C	11.361000	20.015000	15.811000
C	7.671000	21.415000	12.544000
C	8.744000	20.744000	14.593000
C	11.958000	23.461000	7.627000
C	13.963000	24.796000	22.082000
C	17.368000	23.584000	24.949000
C	14.771000	24.823000	23.136000
C	17.328000	23.313000	22.691000
C	17.334000	24.833000	24.803000
C	18.806000	26.011000	22.016000
C	16.520000	27.322000	23.367000
C	20.787000	33.268000	17.704000
C	19.484000	34.056000	15.966000
C	22.252000	28.411000	7.819000
C	25.042000	28.807000	8.894000
C	15.124000	19.741000	16.064000
C	12.637000	19.695000	16.299000
C	7.586000	21.006000	13.868000
C	12.980000	22.732000	7.027000
C	11.726000	24.777000	7.245000
C	12.703000	24.331000	22.096000
C	17.292000	22.639000	23.856000
C	17.624000	23.036000	26.292000
C	14.190000	24.344000	24.269000
C	17.401000	22.565000	21.513000
C	17.404000	25.783000	25.785000
C	20.085000	26.159000	22.712000
C	16.324000	28.457000	22.756000
C	20.190000	34.225000	17.140000
C	21.791000	33.747000	19.627000
C	23.205000	28.346000	6.636000
C	24.432000	28.386000	6.907000
C	25.355000	29.696000	10.761000
C	24.694000	30.961000	8.463000
C	25.515000	26.922000	9.645000
C	26.965000	29.130000	8.290000
C	15.516000	20.230000	17.366000
C	15.999000	18.960000	15.219000
C	13.767000	23.319000	6.045000
C	12.516000	25.362000	6.263000
C	12.139000	23.993000	23.225000
C	17.205000	21.292000	23.936000
C	17.793000	23.990000	27.332000
C	12.917000	23.974000	24.469000
C	17.359000	21.159000	21.536000
C	17.723000	25.263000	27.101000
C	20.398000	24.534000	23.229000
C	16.584000	29.616000	23.922000
C	20.368000	35.612000	17.708000
C	21.128000	35.619000	18.846000
C	22.110000	31.656000	19.980000
C	20.033000	33.148000	20.718000
C	23.672000	33.877000	18.900000
C	22.698000	28.121000	5.374000
C	25.400000	28.266000	5.876000
C	25.714000	29.069000	11.935000
C	25.331000	31.044000	10.837000
C	25.120000	31.785000	9.459000
C	24.429000	31.530000	7.272000
C	25.769000	25.654000	8.984000
C	28.183000	29.795000	8.535000
C	14.784000	21.209000	18.180000
C	16.662000	19.892000	18.104000
C	15.604000	18.606000	13.815000
C	17.199000	18.529000	15.544000
C	13.535000	24.633000	5.663000
C	17.202000	20.437000	22.753000
C	17.636000	20.341000	20.242000
C	20.621000	24.285000	24.723000
C	20.763000	23.522000	22.425000
C	15.709000	30.684000	24.371000
C	17.844000	29.773000	24.718000
C	20.093000	36.840000	17.193000
C	21.302000	36.840000	19.566000
C	23.024000	30.866000	19.411000
C	21.037000	31.022000	20.522000
C	19.961000	31.853000	20.993000
C	19.204000	33.963000	21.091000
C	24.734000	34.499000	18.109000
C	23.639000	27.931000	4.325000
C	24.900000	27.989000	4.578000
C	26.094000	29.743000	13.064000
C	25.650000	31.810000	11.908000
C	25.138000	33.201000	9.343000
C	24.474000	32.961000	7.081000
C	24.230000	25.300000	8.405000
C	29.293000	29.269000	7.307000
C	15.438000	21.316000	19.322000
C	16.590000	20.563000	19.215000
C	17.955000	18.377000	17.463000
C	16.659000	17.902000	13.401000
C	17.573000	17.843000	14.437000
C	18.616000	19.495000	20.291000
C	20.907000	23.021000	25.091000
C	21.064000	22.332000	22.913000
C	15.836000	31.428000	25.318000
C	18.115000	30.647000	25.683000
C	20.298000	38.030000	17.744000
C	20.919000	37.966000	18.869000
C	23.124000	29.561000	19.380000
C	20.956000	29.592000	20.451000
C	18.866000	31.355000	21.713000
C	18.097000	33.687000	21.891000
C	23.995000	34.526000	16.446000
C	26.389000	28.881000	14.321000
C	26.018000	31.087000	13.112000
C	24.915000	33.693000	8.179000
C	23.905000	25.137000	6.965000
C	23.081000	24.950000	9.188000
C	30.068000	30.161000	6.632000
C	29.359000	27.915000	6.987000
C	19.017000	18.711000	19.246000
C	19.535000	17.363000	16.753000
C	18.839000	17.265000	14.321000
C	19.668000	19.360000	21.331000
C	21.088000	22.036000	24.269000
C	17.018000	31.389000	26.074000
C	24.263000	28.884000	18.824000
C	21.999000	28.952000	19.833000
C	17.898000	32.170000	22.153000
C	23.326000	35.643000	15.962000
C	24.004000	33.348000	15.708000
C	25.376000	29.244000	15.388000
C	27.655000	28.303000	14.437000
C	22.620000	24.814000	6.525000
C	21.954000	24.645000	8.823000
C	30.927000	29.429000	5.458000
C	30.155000	27.331000	5.881000
C	20.136000	18.022000	19.606000
C	20.648000	16.945000	17.366000
C	19.852000	16.902000	15.388000
C	19.134000	16.403000	13.064000
C	20.543000	18.523000	20.913000
C	25.092000	28.124000	19.606000
C	24.580000	29.201000	17.366000
C	22.665000	35.585000	14.739000
C	23.347000	33.290000	14.486000
C	24.173000	29.853000	15.330000
C	25.693000	28.783000	16.753000
C	28.569000	28.244000	13.401000
C	28.029000	27.617000	15.544000
C	21.535000	24.559000	7.365000
C	30.891000	28.100000	5.218000
C	20.965000	17.262000	18.824000
C	21.604000	16.243000	16.504000
C	21.055000	16.293000	15.330000
C	19.514000	17.077000	11.935000
C	19.210000	15.059000	13.112000
C	24.685000	27.623000	20.913000
C	26.211000	27.435000	19.246000
C	23.624000	29.903000	16.504000
C	22.677000	34.406000	14.001000
C	27.273000	27.769000	17.463000
C	29.624000	27.540000	13.815000
C	29.229000	27.186000	15.219000
C	22.104000	16.585000	19.380000
C	19.873000	16.450000	10.761000
C	19.578000	14.336000	11.908000
C	25.560000	26.786000	21.331000
C	26.612000	26.651000	20.291000
C	28.566000	26.254000	18.104000
C	30.104000	26.405000	16.064000
C	22.204000	15.280000	19.411000
C	23.229000	17.194000	19.833000
C	19.897000	15.102000	10.837000
C	20.186000	17.339000	8.894000
C	27.592000	25.805000	20.242000
C	29.712000	25.916000	17.366000
C	28.638000	25.583000	19.215000
C	31.439000	25.937000	15.619000
C	23.118000	14.490000	19.980000
C	24.272000	16.554000	20.451000
C	20.108000	14.361000	9.459000
C	22.367000	17.735000	8.996000
C	20.796000	17.760000	6.907000
C	20.534000	15.185000	8.463000
C	19.713000	19.224000	9.645000
C	18.263000	17.016000	8.290000
C	27.869000	24.987000	21.536000
C	30.444000	24.937000	18.180000
C	29.790000	24.830000	19.322000
C	31.651000	25.230000	14.428000
C	32.591000	26.451000	16.299000
C	24.191000	15.124000	20.522000
C	23.437000	12.399000	19.627000
C	20.090000	12.945000	9.343000
C	23.090000	17.785000	10.108000
C	22.976000	17.735000	7.819000
C	22.023000	17.800000	6.636000
C	19.828000	17.880000	5.876000
C	20.799000	14.616000	7.272000
C	19.459000	20.492000	8.984000
C	17.045000	16.351000	8.535000
C	27.827000	23.581000	21.513000
C	28.026000	25.709000	22.753000
C	32.860000	25.008000	13.957000
C	33.867000	26.131000	15.811000
C	25.267000	14.293000	20.993000
C	24.441000	12.878000	17.704000
C	24.100000	10.527000	18.846000
C	25.195000	12.998000	20.718000
C	21.556000	12.269000	18.900000
C	20.313000	12.453000	8.179000
C	24.441000	17.788000	10.090000
C	24.354000	17.735000	7.787000
C	22.530000	18.025000	5.374000
C	20.328000	18.157000	4.578000
C	20.754000	13.185000	7.081000
C	20.998000	20.846000	8.405000
C	15.935000	16.877000	7.307000
C	27.900000	22.833000	22.691000
C	28.023000	24.854000	23.936000
C	33.951000	25.359000	14.575000
C	33.254000	24.099000	11.978000
C	26.362000	14.791000	21.713000
C	24.667000	14.148000	17.273000
C	25.038000	11.921000	17.140000
C	24.860000	10.534000	17.708000
C	23.926000	9.306000	19.566000
C	26.024000	12.183000	21.091000
C	20.494000	11.647000	18.109000
C	25.291000	18.055000	11.432000
C	25.105000	17.763000	8.863000
C	21.589000	18.215000	4.325000
C	21.323000	21.009000	6.965000
C	22.147000	21.196000	9.188000
C	15.160000	15.985000	6.632000
C	15.869000	18.231000	6.987000
C	27.936000	23.507000	23.856000
C	28.291000	20.736000	22.775000
C	35.239000	25.251000	13.988000
C	31.186000	23.796000	11.672000
C	32.585000	25.925000	11.054000
C	35.212000	24.750000	12.739000
C	33.867000	23.325000	10.134000
C	27.330000	13.976000	22.153000
C	25.512000	14.438000	16.122000
C	25.744000	12.090000	15.966000
C	25.135000	9.306000	17.193000
C	24.309000	8.180000	18.869000
C	27.131000	12.459000	21.891000
C	21.233000	11.620000	16.446000
C	25.068000	17.163000	12.459000
C	26.196000	19.188000	11.339000
C	22.608000	21.332000	6.525000
C	23.274000	21.501000	8.823000
C	14.301000	16.717000	5.458000
C	15.073000	18.815000	5.881000
C	27.860000	22.562000	24.949000
C	29.184000	20.633000	20.855000
C	30.457000	21.323000	23.136000
C	27.894000	21.313000	24.803000
C	26.422000	20.135000	22.016000
C	28.708000	18.824000	23.367000
C	36.484000	25.402000	14.593000
C	30.487000	22.833000	12.121000
C	30.441000	24.820000	11.237000
C	31.310000	26.029000	10.757000
C	33.451000	26.962000	10.730000
C	36.315000	24.580000	11.939000
C	34.247000	23.648000	8.783000
C	25.846000	15.794000	15.695000
C	26.045000	13.318000	15.562000
C	24.930000	8.116000	17.744000
C	21.902000	10.503000	15.962000
C	21.224000	12.798000	15.708000
C	24.363000	15.951000	12.406000
C	25.798000	17.123000	13.628000
C	26.293000	20.209000	10.339000
C	26.947000	19.569000	12.415000
C	23.693000	21.587000	7.365000
C	14.337000	18.046000	5.218000
C	27.604000	23.110000	26.292000
C	28.617000	20.209000	19.718000
C	30.463000	20.738000	20.815000
C	31.265000	21.350000	22.082000
C	31.038000	21.802000	24.269000
C	27.824000	20.363000	25.785000
C	25.143000	19.987000	22.712000
C	28.904000	17.689000	22.756000
C	37.642000	25.140000	13.868000
C	29.076000	22.655000	12.175000
C	29.082000	24.867000	11.237000
C	30.761000	27.140000	10.161000
C	32.905000	28.235000	10.263000
C	37.557000	24.731000	12.544000
C	33.270000	22.685000	7.627000
C	26.513000	16.668000	16.557000
C	25.394000	16.068000	14.304000
C	22.563000	10.561000	14.739000
C	21.881000	12.856000	14.486000
C	24.526000	15.274000	13.579000
C	27.253000	18.550000	14.206000
C	27.155000	21.070000	10.703000
C	27.607000	20.603000	12.010000
C	27.435000	22.156000	27.332000
C	29.211000	19.867000	18.553000
C	31.325000	20.553000	19.642000
C	32.525000	21.815000	22.096000
C	32.311000	22.172000	24.469000
C	27.505000	20.883000	27.101000
C	24.830000	21.612000	23.229000
C	28.644000	16.529000	23.922000
C	28.421000	21.479000	12.837000
C	28.415000	23.707000	11.752000
C	31.518000	28.238000	9.974000
C	32.248000	23.414000	7.027000
C	33.502000	21.369000	7.245000
C	26.790000	16.360000	17.935000
C	27.086000	17.849000	16.113000
C	22.551000	11.740000	14.001000
C	28.349000	20.166000	14.904000
C	28.494000	19.455000	17.317000
C	30.665000	20.074000	18.562000
C	33.089000	22.153000	23.225000
C	24.607000	21.861000	24.723000
C	24.465000	22.624000	22.425000
C	29.519000	15.462000	24.371000
C	27.384000	16.373000	24.718000
C	28.762000	21.286000	14.224000
C	31.461000	22.827000	6.045000
C	32.712000	20.784000	6.263000
C	27.559000	17.339000	18.357000
C	27.782000	18.357000	17.233000
C	28.723000	20.421000	16.211000
C	24.321000	23.125000	25.091000
C	24.164000	23.814000	22.913000
C	29.392000	14.717000	25.318000
C	27.113000	15.499000	25.683000
C	29.392000	22.245000	15.068000
C	31.693000	21.513000	5.663000
C	29.422000	21.624000	16.299000
C	24.140000	24.110000	24.269000
C	28.210000	14.757000	26.074000
