
     RDKit          3D

  0  0  0  0  0  0  0  0  0  0999 V3000
M  V30 BEGIN CTAB
M  V30 COUNTS 126 150 0 0 0
M  V30 BEGIN ATOM
M  V30 1 F 13.148000 19.722000 13.373000 0
M  V30 2 F 13.365000 18.360000 11.881000 0
M  V30 3 F 12.931000 21.084000 11.881000 0
M  V30 4 F 13.380000 18.342000 14.888000 0
M  V30 5 F 12.917000 21.103000 14.888000 0
M  V30 6 F 18.595000 27.153000 3.982000 0
M  V30 7 F 18.507000 25.386000 2.987000 0
M  V30 8 F 16.950000 26.497000 4.995000 0
M  V30 9 F 18.670000 28.950000 4.976000 0
M  V30 10 F 20.253000 27.829000 2.967000 0
M  V30 11 F 11.733000 21.318000 11.339000 0
M  V30 12 F 14.013000 21.666000 11.321000 0
M  V30 13 F 17.066000 25.736000 6.087000 0
M  V30 14 F 15.728000 26.738000 4.502000 0
M  V30 15 F 19.070000 24.300000 3.492000 0
M  V30 16 F 17.761000 25.263000 1.866000 0
M  V30 17 F 13.668000 24.122000 7.956000 0
M  V30 18 F 12.551000 23.611000 8.470000 0
M  V30 19 F 13.493000 24.850000 6.853000 0
M  V30 20 F 12.330000 25.081000 6.262000 0
M  V30 21 F 11.278000 24.519000 6.863000 0
M  V30 22 F 11.323000 23.774000 7.970000 0
M  V30 23 F 12.909000 19.004000 16.142000 0
M  V30 24 F 20.385000 29.263000 3.377000 0
M  V30 25 F 19.969000 29.547000 4.639000 0
M  V30 26 F 13.916000 22.486000 10.230000 0
M  V30 27 F 12.675000 22.744000 9.672000 0
M  V30 28 F 11.565000 22.149000 10.237000 0
M  V30 29 F 14.594000 26.212000 5.080000 0
M  V30 30 F 14.708000 25.429000 6.216000 0
M  V30 31 F 15.983000 25.181000 6.726000 0
M  V30 32 F 8.570000 25.644000 4.496000 0
M  V30 33 F 7.484000 25.081000 5.000000 0
M  V30 34 F 9.824000 25.484000 5.080000 0
M  V30 35 F 9.948000 24.726000 6.221000 0
M  V30 36 F 8.804000 24.140000 6.754000 0
M  V30 37 F 17.566000 24.066000 1.233000 0
M  V30 38 F 18.152000 22.922000 1.767000 0
M  V30 39 F 13.387000 20.440000 16.142000 0
M  V30 40 F 12.283000 17.779000 11.321000 0
M  V30 41 F 14.563000 18.126000 11.339000 0
M  V30 42 F 12.380000 16.958000 10.230000 0
M  V30 43 F 14.731000 17.295000 10.237000 0
M  V30 44 F 13.621000 16.701000 9.672000 0
M  V30 45 F 13.745000 15.833000 8.470000 0
M  V30 46 F 12.629000 15.323000 7.956000 0
M  V30 47 F 14.973000 15.670000 7.970000 0
M  V30 48 F 12.804000 14.594000 6.853000 0
M  V30 49 F 15.018000 14.926000 6.863000 0
M  V30 50 F 13.966000 14.363000 6.262000 0
M  V30 51 F 11.589000 14.016000 6.216000 0
M  V30 52 F 16.348000 14.718000 6.221000 0
M  V30 53 F 11.702000 13.232000 5.080000 0
M  V30 54 F 10.313000 14.263000 6.726000 0
M  V30 55 F 16.472000 13.961000 5.080000 0
M  V30 56 F 17.492000 15.304000 6.754000 0
M  V30 57 F 10.568000 12.706000 4.502000 0
M  V30 58 F 9.230000 13.708000 6.087000 0
M  V30 59 F 17.726000 13.800000 4.496000 0
M  V30 60 F 18.689000 15.110000 6.122000 0
M  V30 61 F 9.346000 12.948000 4.995000 0
M  V30 62 F 18.812000 14.363000 5.000000 0
M  V30 63 F 7.702000 12.291000 3.982000 0
M  V30 64 F 20.579000 14.276000 4.006000 0
M  V30 65 F 7.789000 14.058000 2.987000 0
M  V30 66 F 6.043000 11.615000 2.967000 0
M  V30 67 F 7.626000 10.495000 4.976000 0
M  V30 68 F 19.923000 15.921000 2.993000 0
M  V30 69 F 21.255000 12.617000 5.020000 0
M  V30 70 F 22.376000 14.200000 3.012000 0
M  V30 71 F 7.226000 15.144000 3.492000 0
M  V30 72 F 8.536000 14.182000 1.866000 0
M  V30 73 F 5.911000 10.182000 3.377000 0
M  V30 74 F 6.327000 9.898000 4.639000 0
M  V30 75 F 20.164000 17.143000 3.486000 0
M  V30 76 F 19.162000 15.804000 1.901000 0
M  V30 77 F 22.688000 12.485000 4.611000 0
M  V30 78 F 22.972000 12.901000 3.348000 0
M  V30 79 F 7.387000 16.398000 2.908000 0
M  V30 80 F 8.730000 15.378000 1.233000 0
M  V30 81 F 19.638000 18.276000 2.908000 0
M  V30 82 F 18.607000 16.887000 1.262000 0
M  V30 83 F 8.144000 16.522000 1.767000 0
M  V30 84 F 18.854000 18.163000 1.772000 0
M  V30 85 F 8.352000 17.853000 1.125000 0
M  V30 86 F 18.276000 19.378000 1.134000 0
M  V30 87 F 7.789000 18.904000 1.726000 0
M  V30 88 F 9.096000 17.898000 0.018000 0
M  V30 89 F 17.548000 19.203000 0.031000 0
M  V30 90 F 18.507000 20.540000 1.726000 0
M  V30 91 F 8.020000 20.067000 1.134000 0
M  V30 92 F 9.259000 19.125000 -0.482000 0
M  V30 93 F 17.037000 20.319000 -0.482000 0
M  V30 94 F 17.945000 21.592000 1.125000 0
M  V30 95 F 8.749000 20.242000 0.031000 0
M  V30 96 F 7.442000 21.282000 1.772000 0
M  V30 97 F 10.127000 19.249000 -1.684000 0
M  V30 98 F 17.200000 21.547000 0.018000 0
M  V30 99 F 16.170000 20.196000 -1.684000 0
M  V30 100 F 6.658000 21.169000 2.908000 0
M  V30 101 F 7.689000 22.557000 1.262000 0
M  V30 102 F 10.384000 20.490000 -2.242000 0
M  V30 103 F 10.721000 18.139000 -2.249000 0
M  V30 104 F 15.912000 18.954000 -2.242000 0
M  V30 105 F 15.575000 21.305000 -2.249000 0
M  V30 106 F 18.910000 23.046000 2.908000 0
M  V30 107 F 6.132000 22.302000 3.486000 0
M  V30 108 F 7.134000 23.640000 1.901000 0
M  V30 109 F 11.205000 20.587000 -3.333000 0
M  V30 110 F 11.552000 18.307000 -3.352000 0
M  V30 111 F 15.091000 18.857000 -3.333000 0
M  V30 112 F 14.744000 21.137000 -3.352000 0
M  V30 113 F 6.373000 23.524000 2.993000 0
M  V30 114 F 11.786000 19.505000 -3.894000 0
M  V30 115 F 14.510000 19.939000 -3.894000 0
M  V30 116 F 5.717000 25.169000 4.006000 0
M  V30 117 F 13.148000 19.722000 -5.385000 0
M  V30 118 F 5.041000 26.827000 5.020000 0
M  V30 119 F 3.921000 25.244000 3.012000 0
M  V30 120 F 11.768000 19.491000 -6.900000 0
M  V30 121 F 14.529000 19.954000 -6.900000 0
M  V30 122 F 7.608000 24.335000 6.122000 0
M  V30 123 F 3.608000 26.959000 4.611000 0
M  V30 124 F 3.324000 26.543000 3.348000 0
M  V30 125 F 12.430000 19.962000 -8.154000 0
M  V30 126 F 13.866000 19.483000 -8.154000 0
M  V30 END ATOM
M  V30 BEGIN BOND
M  V30 1 1 1 2
M  V30 2 1 1 3
M  V30 3 1 1 4
M  V30 4 1 1 5
M  V30 5 1 2 40
M  V30 6 1 2 41
M  V30 7 1 3 12
M  V30 8 1 3 11
M  V30 9 1 4 23
M  V30 10 1 5 39
M  V30 11 1 6 10
M  V30 12 1 6 7
M  V30 13 1 6 9
M  V30 14 1 6 8
M  V30 15 1 7 16
M  V30 16 1 7 15
M  V30 17 1 8 14
M  V30 18 1 8 13
M  V30 19 1 9 25
M  V30 20 1 10 24
M  V30 21 1 11 28
M  V30 22 1 12 26
M  V30 23 1 13 31
M  V30 24 1 14 29
M  V30 25 1 15 106
M  V30 26 1 16 37
M  V30 27 1 17 19
M  V30 28 1 17 18
M  V30 29 1 18 22
M  V30 30 1 18 27
M  V30 31 1 19 30
M  V30 32 1 19 20
M  V30 33 1 20 21
M  V30 34 1 21 35
M  V30 35 1 21 22
M  V30 36 1 23 39
M  V30 37 1 24 25
M  V30 38 1 26 27
M  V30 39 1 27 28
M  V30 40 1 29 30
M  V30 41 1 30 31
M  V30 42 1 32 33
M  V30 43 1 32 34
M  V30 44 1 33 116
M  V30 45 1 33 122
M  V30 46 1 34 35
M  V30 47 1 35 36
M  V30 48 1 36 122
M  V30 49 1 37 38
M  V30 50 1 38 94
M  V30 51 1 38 106
M  V30 52 1 40 42
M  V30 53 1 41 43
M  V30 54 1 42 44
M  V30 55 1 43 44
M  V30 56 1 44 45
M  V30 57 1 45 46
M  V30 58 1 45 47
M  V30 59 1 46 48
M  V30 60 1 47 49
M  V30 61 1 48 51
M  V30 62 1 48 50
M  V30 63 1 49 52
M  V30 64 1 49 50
M  V30 65 1 51 53
M  V30 66 1 51 54
M  V30 67 1 52 55
M  V30 68 1 52 56
M  V30 69 1 53 57
M  V30 70 1 54 58
M  V30 71 1 55 59
M  V30 72 1 56 60
M  V30 73 1 57 61
M  V30 74 1 58 61
M  V30 75 1 59 62
M  V30 76 1 60 62
M  V30 77 1 61 63
M  V30 78 1 62 64
M  V30 79 1 63 66
M  V30 80 1 63 65
M  V30 81 1 63 67
M  V30 82 1 64 68
M  V30 83 1 64 70
M  V30 84 1 64 69
M  V30 85 1 65 72
M  V30 86 1 65 71
M  V30 87 1 66 73
M  V30 88 1 67 74
M  V30 89 1 68 76
M  V30 90 1 68 75
M  V30 91 1 69 77
M  V30 92 1 70 78
M  V30 93 1 71 79
M  V30 94 1 72 80
M  V30 95 1 73 74
M  V30 96 1 75 81
M  V30 97 1 76 82
M  V30 98 1 77 78
M  V30 99 1 79 83
M  V30 100 1 80 83
M  V30 101 1 81 84
M  V30 102 1 82 84
M  V30 103 1 83 85
M  V30 104 1 84 86
M  V30 105 1 85 88
M  V30 106 1 85 87
M  V30 107 1 86 89
M  V30 108 1 86 90
M  V30 109 1 87 91
M  V30 110 1 88 92
M  V30 111 1 89 93
M  V30 112 1 90 94
M  V30 113 1 91 95
M  V30 114 1 91 96
M  V30 115 1 92 97
M  V30 116 1 92 95
M  V30 117 1 93 99
M  V30 118 1 93 98
M  V30 119 1 94 98
M  V30 120 1 96 101
M  V30 121 1 96 100
M  V30 122 1 97 103
M  V30 123 1 97 102
M  V30 124 1 99 105
M  V30 125 1 99 104
M  V30 126 1 100 107
M  V30 127 1 101 108
M  V30 128 1 102 109
M  V30 129 1 103 110
M  V30 130 1 104 111
M  V30 131 1 105 112
M  V30 132 1 107 113
M  V30 133 1 108 113
M  V30 134 1 109 114
M  V30 135 1 110 114
M  V30 136 1 111 115
M  V30 137 1 112 115
M  V30 138 1 113 116
M  V30 139 1 114 117
M  V30 140 1 115 117
M  V30 141 1 116 119
M  V30 142 1 116 118
M  V30 143 1 117 121
M  V30 144 1 117 120
M  V30 145 1 118 123
M  V30 146 1 119 124
M  V30 147 1 120 125
M  V30 148 1 121 126
M  V30 149 1 123 124
M  V30 150 1 125 126
M  V30 END BOND
M  V30 END CTAB
M  END
