
     RDKit          3D

  0  0  0  0  0  0  0  0  0  0999 V3000
M  V30 BEGIN CTAB
M  V30 COUNTS 436 754 0 0 0
M  V30 BEGIN ATOM
M  V30 1 N 12.944703 7.852039 19.292975 0
M  V30 2 H 12.253681 5.973719 20.748420 0
M  V30 3 N 17.406106 4.228996 13.368744 0
M  V30 4 N 16.312964 3.508043 13.010693 0
M  V30 5 H 11.885310 3.563162 14.552461 0
M  V30 6 H 11.885310 1.350509 16.518454 0
M  V30 7 H 12.086130 7.813634 20.748420 0
M  V30 8 H 11.885310 5.663669 20.748420 0
M  V30 9 N 17.578899 4.670958 13.355401 0
M  V30 10 N 16.759351 3.962833 12.899584 0
M  V30 11 N 16.722565 3.747850 12.947636 0
M  V30 12 N 16.720446 3.751040 12.944580 0
M  V30 13 H 11.885310 0.956235 13.955138 0
M  V30 14 H 11.885310 7.933866 20.748420 0
M  V30 15 N 16.471443 4.886048 13.214164 0
M  V30 16 N 17.626765 4.898507 13.312391 0
M  V30 17 N 17.101467 4.664655 12.937946 0
M  V30 18 H 11.885310 8.179318 20.101759 0
M  V30 19 H 12.341890 7.202062 20.748420 0
M  V30 20 N 15.965785 3.707568 15.461840 0
M  V30 21 N 15.979208 3.675166 15.418983 0
M  V30 22 N 14.644403 5.062285 13.908455 0
M  V30 23 N 17.177786 5.376318 13.971761 0
M  V30 24 H 11.885310 7.683814 19.207554 0
M  V30 25 N 17.145479 5.402475 14.007320 0
M  V30 26 N 16.790042 1.646697 14.586744 0
M  V30 27 H 11.885310 0.803610 16.383431 0
M  V30 28 H 11.998084 0.803610 13.710490 0
M  V30 29 H 11.885310 0.803610 13.800063 0
M  V30 30 H 11.995808 0.803610 13.710575 0
M  V30 31 N 17.454680 3.376359 13.422731 0
M  V30 32 N 16.743949 3.664404 12.963482 0
M  V30 33 H 18.759663 0.803610 13.678110 0
M  V30 34 H 16.740479 1.180992 12.230292 0
M  V30 35 H 17.119195 0.803610 14.733813 0
M  V30 36 H 18.745797 0.849337 13.667568 0
M  V30 37 H 18.745884 0.803610 13.654183 0
M  V30 38 H 16.977589 0.803610 12.300759 0
M  V30 39 H 11.885310 0.803610 13.576105 0
M  V30 40 H 11.885310 0.803610 13.386469 0
M  V30 41 H 12.615750 0.803610 10.938129 0
M  V30 42 N 15.721012 2.716280 10.759958 0
M  V30 43 H 11.885310 0.828824 13.521333 0
M  V30 44 N 13.624448 4.223641 5.917049 0
M  V30 45 N 13.859366 4.633089 6.422803 0
M  V30 46 H 11.885310 0.803610 10.042787 0
M  V30 47 H 11.885310 4.527273 4.869000 0
M  V30 48 N 16.312964 3.508043 13.010693 0
M  V30 49 H 11.885310 4.970039 5.499460 0
M  V30 50 H 11.885310 3.287193 4.869000 0
M  V30 51 H 11.885310 3.247503 11.825994 0
M  V30 52 N 15.437446 3.981234 8.958484 0
M  V30 53 H 12.675757 3.800084 4.869000 0
M  V30 54 N 16.045977 4.738929 10.191862 0
M  V30 55 N 15.619327 2.850200 10.356336 0
M  V30 56 N 16.772738 4.582121 12.469828 0
M  V30 57 H 12.626838 3.723509 4.869000 0
M  V30 58 H 11.885310 5.198743 6.409005 0
M  V30 59 N 15.289055 4.849971 8.924562 0
M  V30 60 H 11.885310 5.137682 7.699978 0
M  V30 61 N 14.591669 4.768895 11.634124 0
M  V30 62 N 12.961585 4.747218 5.847327 0
M  V30 63 H 11.885310 4.653667 4.971186 0
M  V30 64 N 14.703700 4.881497 12.054798 0
M  V30 65 H 11.885310 0.803610 20.748420 0
M  V30 66 H 16.202379 0.803610 20.748420 0
M  V30 67 H 17.059834 0.803610 18.460549 0
M  V30 68 H 11.885310 0.803610 4.869000 0
M  V30 69 H 13.579404 0.803610 4.869000 0
M  V30 70 H 11.885310 7.151043 11.759476 0
M  V30 71 H 19.489860 13.256650 9.528926 0
M  V30 72 N 19.900756 7.547527 8.496950 0
M  V30 73 H 18.779518 13.256650 4.869000 0
M  V30 74 H 19.984650 9.089083 4.869000 0
M  V30 75 N 19.984650 7.668596 9.197418 0
M  V30 76 H 18.775475 13.256650 8.682780 0
M  V30 77 N 20.068551 7.547527 8.496950 0
M  V30 78 H 21.193872 13.256650 8.682778 0
M  V30 79 N 21.255661 9.935875 8.064325 0
M  V30 80 N 20.214635 7.620140 8.917069 0
M  V30 81 H 21.225238 11.373661 4.869000 0
M  V30 82 H 21.189830 13.256650 4.869000 0
M  V30 83 H 19.984650 13.256650 9.831816 0
M  V30 84 N 18.713691 9.935965 8.064344 0
M  V30 85 H 20.479460 13.256650 9.528924 0
M  V30 86 H 18.744113 11.373757 4.869000 0
M  V30 87 N 19.754681 7.620142 8.917077 0
M  V30 88 N 19.984650 11.934896 9.897944 0
M  V30 89 N 20.649648 7.429267 8.691848 0
M  V30 90 H 22.512857 8.929961 4.869000 0
M  V30 91 N 20.140612 7.516203 8.460711 0
M  V30 92 N 22.019252 7.754730 7.877916 0
M  V30 93 N 22.458491 7.976636 7.315202 0
M  V30 94 H 19.984650 8.914511 4.869000 0
M  V30 95 N 21.225348 6.021697 6.731691 0
M  V30 96 H 27.062445 5.926271 4.869000 0
M  V30 97 H 26.336623 3.625667 4.869000 0
M  V30 98 H 28.209518 4.642756 4.869000 0
M  V30 99 N 27.007715 4.747218 5.847327 0
M  V30 100 N 23.050878 6.159406 8.225761 0
M  V30 101 H 27.293543 3.800084 4.869000 0
M  V30 102 N 22.173703 5.522287 6.589723 0
M  V30 103 N 23.002667 6.141828 8.257609 0
M  V30 104 N 23.793791 4.932954 6.794851 0
M  V30 105 H 26.121428 3.797330 5.390824 0
M  V30 106 N 26.344852 4.223641 5.917049 0
M  V30 107 H 26.507110 3.559979 4.869000 0
M  V30 108 H 19.984650 8.781974 4.869000 0
M  V30 109 N 26.109934 4.633089 6.422803 0
M  V30 110 N 23.081412 6.081001 8.212973 0
M  V30 111 N 19.828701 7.516203 8.460711 0
M  V30 112 N 18.744054 6.021697 6.731691 0
M  V30 113 H 29.439740 9.306528 4.869000 0
M  V30 114 H 29.439740 13.256650 4.869000 0
M  V30 115 H 23.010313 13.256650 8.594370 0
M  V30 116 H 29.439740 13.256650 5.993013 0
M  V30 117 N 17.795776 5.522287 6.589723 0
M  V30 118 H 13.633198 3.625667 4.869000 0
M  V30 119 H 19.209111 13.256650 11.866588 0
M  V30 120 N 21.225711 11.594225 14.271129 0
M  V30 121 H 19.984650 13.256650 11.323326 0
M  V30 122 H 18.740897 13.256650 15.592046 0
M  V30 123 H 21.176043 13.256650 12.920654 0
M  V30 124 H 20.760221 13.256650 11.866592 0
M  V30 125 H 18.793305 13.256650 12.920630 0
M  V30 126 H 20.767730 13.256650 11.878609 0
M  V30 127 H 19.984650 13.256650 18.258088 0
M  V30 128 N 18.743640 11.594285 14.271065 0
M  V30 129 N 19.928899 9.124224 14.840177 0
M  V30 130 N 20.040405 9.124226 14.840179 0
M  V30 131 N 21.200141 12.332972 13.492705 0
M  V30 132 N 19.984650 9.053270 14.821793 0
M  V30 133 N 19.984650 11.818995 12.060715 0
M  V30 134 H 21.228454 13.256650 15.592158 0
M  V30 135 N 19.984650 10.255343 15.862515 0
M  V30 136 H 19.201586 13.256650 11.878631 0
M  V30 137 N 18.769209 12.333025 13.492648 0
M  V30 138 N 22.417871 10.215347 15.763231 0
M  V30 139 H 22.572513 13.256650 18.504138 0
M  V30 140 H 20.306348 13.256650 18.562985 0
M  V30 141 H 19.984650 13.256650 18.325768 0
M  V30 142 N 23.124068 7.940418 16.302122 0
M  V30 143 H 21.372231 13.256650 20.748420 0
M  V30 144 N 19.984650 8.941264 14.829843 0
M  V30 145 H 29.439740 8.964989 20.748420 0
M  V30 146 H 29.439740 9.567215 20.748420 0
M  V30 147 H 26.916507 7.870546 20.748420 0
M  V30 148 N 19.984650 8.989274 15.240029 0
M  V30 149 H 25.415421 13.256650 20.748420 0
M  V30 150 N 27.214700 9.028669 18.528168 0
M  V30 151 H 21.608351 12.480953 20.748420 0
M  V30 152 N 22.922944 7.996074 16.135498 0
M  V30 153 N 24.627935 8.985677 16.782575 0
M  V30 154 N 23.687113 9.714439 16.333886 0
M  V30 155 N 27.825526 8.981955 18.970148 0
M  V30 156 H 29.439740 9.235107 20.462446 0
M  V30 157 H 28.856753 8.418048 20.691717 0
M  V30 158 N 21.114050 8.826360 17.454018 0
M  V30 159 N 21.888711 8.576846 17.795500 0
M  V30 160 N 23.814841 7.894292 18.113501 0
M  V30 161 N 26.367279 7.872508 18.554497 0
M  V30 162 N 27.024597 7.852039 19.292975 0
M  V30 163 H 29.121917 8.637619 20.748420 0
M  V30 164 H 28.909928 8.428362 20.748420 0
M  V30 165 H 27.883170 7.813634 20.748420 0
M  V30 166 H 27.037900 7.817376 20.748420 0
M  V30 167 N 18.855342 8.826360 17.454018 0
M  V30 168 H 18.597182 13.256650 20.748420 0
M  V30 169 H 19.662978 13.256650 18.562986 0
M  V30 170 H 18.361082 12.480953 20.748420 0
M  V30 171 N 27.999376 9.127647 18.863801 0
M  V30 172 H 29.439740 13.256650 20.748420 0
M  V30 173 H 29.439740 13.256650 17.087171 0
M  V30 174 H 29.439740 9.803690 19.180232 0
M  V30 175 N 18.080744 8.576846 17.795500 0
M  V30 176 H 13.053359 7.870546 20.748420 0
M  V30 177 H 29.439740 10.421959 16.969714 0
M  V30 178 H 29.439740 12.772426 11.666862 0
M  V30 179 H 29.439740 10.945088 12.886253 0
M  V30 180 N 21.171856 7.459012 14.418829 0
M  V30 181 H 29.439740 10.736398 13.318421 0
M  V30 182 H 28.736947 12.647576 11.447925 0
M  V30 183 N 27.614736 12.135592 11.803636 0
M  V30 184 N 24.550869 10.174967 14.044541 0
M  V30 185 N 22.328335 5.349248 13.561987 0
M  V30 186 N 20.537769 6.016581 12.846782 0
M  V30 187 N 22.848118 5.496170 14.055342 0
M  V30 188 N 21.392852 5.524394 13.042789 0
M  V30 189 N 21.174197 7.459553 14.421512 0
M  V30 190 N 21.444288 7.393963 14.647650 0
M  V30 191 N 20.672245 6.436949 12.123926 0
M  V30 192 N 20.952861 5.945934 12.572266 0
M  V30 193 N 20.250797 6.239701 12.706574 0
M  V30 194 N 20.364233 6.140287 12.754681 0
M  V30 195 N 23.391736 11.483241 12.510301 0
M  V30 196 N 19.984650 9.156515 12.582039 0
M  V30 197 N 19.984650 7.638972 13.708456 0
M  V30 198 N 20.324628 6.713654 11.834374 0
M  V30 199 N 20.331785 6.708652 11.835760 0
M  V30 200 N 19.984650 6.491318 12.412264 0
M  V30 201 N 19.984650 6.830142 11.938049 0
M  V30 202 N 20.695980 6.563652 11.887611 0
M  V30 203 N 19.984650 6.370633 12.624727 0
M  V30 204 N 19.984650 7.055634 11.435387 0
M  V30 205 H 24.474276 13.256650 9.211023 0
M  V30 206 H 24.771217 12.767066 9.309494 0
M  V30 207 H 29.259852 13.256650 10.895697 0
M  V30 208 H 20.775237 13.256650 11.868284 0
M  V30 209 H 25.530344 13.256650 9.278518 0
M  V30 210 N 19.984650 7.714932 10.950396 0
M  V30 211 H 28.794015 12.685185 11.424097 0
M  V30 212 H 29.378540 13.256650 11.087675 0
M  V30 213 N 24.476761 8.912362 8.975981 0
M  V30 214 H 29.439740 13.256650 8.881279 0
M  V30 215 H 29.439740 13.256650 10.243126 0
M  V30 216 N 20.803868 6.542401 11.786896 0
M  V30 217 H 29.439740 12.942982 8.851705 0
M  V30 218 N 19.984650 7.226337 10.890498 0
M  V30 219 N 21.045736 6.725325 10.328024 0
M  V30 220 N 21.365964 6.636661 10.165941 0
M  V30 221 N 24.680245 4.849971 8.924562 0
M  V30 222 H 29.439740 13.256650 11.105241 0
M  V30 223 N 22.897657 5.415051 10.997730 0
M  V30 224 H 29.439740 5.250720 5.061263 0
M  V30 225 H 29.439740 5.337663 5.407031 0
M  V30 226 H 29.439740 12.984996 11.344916 0
M  V30 227 N 22.740198 6.205515 8.551766 0
M  V30 228 H 29.439740 10.619060 10.744931 0
M  V30 229 N 22.262103 5.284591 13.485918 0
M  V30 230 N 21.583518 5.387728 13.097101 0
M  V30 231 N 22.080968 5.096125 13.201438 0
M  V30 232 N 21.918966 5.162414 13.143470 0
M  V30 233 N 22.457763 5.211635 11.881204 0
M  V30 234 N 22.475814 5.208782 11.863210 0
M  V30 235 N 19.984650 7.658329 13.736177 0
M  V30 236 N 19.984650 7.244993 10.499809 0
M  V30 237 N 21.168323 6.678479 10.031941 0
M  V30 238 H 29.439740 5.135577 4.869000 0
M  V30 239 N 22.342535 4.898507 13.312391 0
M  V30 240 H 29.439740 8.242779 11.617415 0
M  V30 241 N 23.196562 4.582121 12.469828 0
M  V30 242 N 22.310512 4.920079 13.308417 0
M  V30 243 N 22.823821 5.402475 14.007320 0
M  V30 244 N 23.497857 4.886048 13.214164 0
M  V30 245 N 22.488939 5.237753 13.669323 0
M  V30 246 N 22.867833 4.664655 12.937946 0
M  V30 247 H 29.439740 5.322426 5.729168 0
M  V30 248 N 25.265600 4.881497 12.054798 0
M  V30 249 N 25.377631 4.768895 11.634124 0
M  V30 250 N 22.791514 5.376318 13.971761 0
M  V30 251 N 23.923323 4.738929 10.191862 0
M  V30 252 H 29.439740 8.895932 20.748420 0
M  V30 253 N 25.324897 5.062285 13.908455 0
M  V30 254 H 18.624549 0.803610 20.748420 0
M  V30 255 H 21.344804 0.803610 20.748420 0
M  V30 256 H 21.306953 0.803610 17.559072 0
M  V30 257 H 20.270122 3.643056 20.748420 0
M  V30 258 N 18.714144 2.457541 15.471514 0
M  V30 259 N 19.984650 4.745510 13.366868 0
M  V30 260 H 18.642246 1.888778 20.748420 0
M  V30 261 N 21.255203 2.457653 15.471402 0
M  V30 262 H 21.327105 1.888882 20.748420 0
M  V30 263 H 18.662399 0.803610 17.559043 0
M  V30 264 H 19.451030 0.803610 14.073736 0
M  V30 265 H 19.984650 3.807787 20.748420 0
M  V30 266 N 20.996377 3.040401 13.672631 0
M  V30 267 N 18.972971 3.040338 13.672643 0
M  V30 268 H 19.699203 3.643057 20.748420 0
M  V30 269 H 20.518289 0.803610 14.073736 0
M  V30 270 N 19.984650 5.258070 13.213102 0
M  V30 271 N 17.707197 5.284591 13.485918 0
M  V30 272 N 17.480361 5.237753 13.669323 0
M  V30 273 N 17.844425 4.528394 13.383462 0
M  V30 274 N 19.579245 5.413972 13.083874 0
M  V30 275 N 18.385782 5.387728 13.097101 0
M  V30 276 H 17.806499 3.606291 20.748420 0
M  V30 277 N 18.735102 3.401422 13.515937 0
M  V30 278 N 19.753475 5.408798 13.120864 0
M  V30 279 N 18.050334 5.162414 13.143470 0
M  V30 280 N 18.733328 3.709295 13.423215 0
M  V30 281 N 17.658788 4.920079 13.308417 0
M  V30 282 N 17.888332 5.096125 13.201438 0
M  V30 283 N 16.154776 7.894294 18.113500 0
M  V30 284 N 13.602021 7.872508 18.554497 0
M  V30 285 N 18.525128 7.393982 14.647584 0
M  V30 286 H 19.546061 4.786955 20.748420 0
M  V30 287 N 17.121182 5.496170 14.055342 0
M  V30 288 N 19.431566 6.016601 12.846774 0
M  V30 289 H 19.984650 4.007342 20.748420 0
M  V30 290 N 19.669894 5.570195 13.022097 0
M  V30 291 N 18.910538 6.153480 18.924544 0
M  V30 292 N 16.845585 7.940425 16.301877 0
M  V30 293 H 12.931981 7.817378 20.748420 0
M  V30 294 N 18.576448 5.524394 13.042789 0
M  V30 295 N 17.640965 5.349248 13.561987 0
M  V30 296 N 20.215844 5.408798 13.120864 0
M  V30 297 N 18.797462 7.458997 14.418831 0
M  V30 298 N 18.795096 7.459544 14.421543 0
M  V30 299 N 19.984650 6.037975 12.735840 0
M  V30 300 N 19.984650 6.092967 12.708909 0
M  V30 301 H 20.423275 4.786955 20.748420 0
M  V30 302 N 21.058851 6.153480 18.924544 0
M  V30 303 N 19.718506 6.239700 12.706578 0
M  V30 304 N 19.605075 6.140290 12.754683 0
M  V30 305 N 20.299432 5.570195 13.022098 0
M  V30 306 N 17.046455 7.996016 16.135461 0
M  V30 307 H 21.209657 0.803610 13.678122 0
M  V30 308 N 20.390088 5.413971 13.083875 0
M  V30 309 H 21.223553 0.849433 13.667558 0
M  V30 310 H 20.036497 0.803610 7.827609 0
M  V30 311 H 19.932807 0.803610 7.827609 0
M  V30 312 H 21.223466 0.803610 13.654145 0
M  V30 313 N 21.234248 3.401485 13.515930 0
M  V30 314 H 18.726344 0.803610 10.647630 0
M  V30 315 H 21.243007 0.803610 10.647507 0
M  V30 316 N 21.236022 3.709402 13.423195 0
M  V30 317 H 19.772261 0.803610 7.703387 0
M  V30 318 H 18.450627 0.803610 7.706820 0
M  V30 319 H 18.435007 0.803610 9.939835 0
M  V30 320 N 17.515178 2.202902 9.033600 0
M  V30 321 N 19.016439 5.945934 12.572266 0
M  V30 322 N 17.511537 5.211635 11.881204 0
M  V30 323 N 18.681906 3.403477 7.327212 0
M  V30 324 N 19.297055 6.436949 12.123926 0
M  V30 325 N 16.175821 4.932954 6.794851 0
M  V30 326 N 17.228391 6.205292 8.550931 0
M  V30 327 H 19.282255 0.803610 6.659932 0
M  V30 328 N 19.165432 6.542401 11.786896 0
M  V30 329 H 13.847974 3.797134 5.390582 0
M  V30 330 N 19.637539 6.708661 11.835757 0
M  V30 331 N 19.273320 6.563652 11.887611 0
M  V30 332 N 18.603336 6.636661 10.165941 0
M  V30 333 N 17.493486 5.208782 11.863210 0
M  V30 334 H 17.545793 0.803610 5.913927 0
M  V30 335 N 16.888249 6.081174 8.213186 0
M  V30 336 N 17.071643 5.415051 10.997730 0
M  V30 337 N 18.923665 6.725353 10.328076 0
M  V30 338 N 18.801075 6.678505 10.031962 0
M  V30 339 H 20.687103 0.803610 6.659932 0
M  V30 340 N 19.644678 6.713651 11.834374 0
M  V30 341 H 20.197056 0.803610 7.703387 0
M  V30 342 N 21.287500 3.403477 7.327212 0
M  V30 343 H 13.462489 3.559887 4.869000 0
M  V30 344 H 16.286539 0.803610 4.869000 0
M  V30 345 N 19.319675 7.429262 8.691862 0
M  V30 346 N 16.966725 6.141795 8.257669 0
M  V30 347 H 22.423451 0.803610 5.914037 0
M  V30 348 H 23.682878 0.803610 4.869000 0
M  V30 349 N 23.209949 3.962833 12.899584 0
M  V30 350 H 28.349732 0.803610 14.015278 0
M  V30 351 N 24.003515 3.707568 15.461840 0
M  V30 352 H 29.439740 8.031028 20.748420 0
M  V30 353 H 29.439740 0.803610 17.101202 0
M  V30 354 H 27.627410 7.202062 20.748420 0
M  V30 355 N 23.656336 3.508043 13.010693 0
M  V30 356 H 27.715619 5.973719 20.748420 0
M  V30 357 N 23.990092 3.675166 15.418983 0
M  V30 358 H 29.439740 2.826530 14.868910 0
M  V30 359 H 29.439740 4.522561 20.748420 0
M  V30 360 N 23.248854 3.751040 12.944580 0
M  V30 361 H 29.047120 0.803610 16.777116 0
M  V30 362 H 29.439740 0.803610 14.405399 0
M  V30 363 N 22.563194 4.228996 13.368744 0
M  V30 364 N 23.246735 3.747850 12.947636 0
M  V30 365 N 22.390401 4.670958 13.355401 0
M  V30 366 N 22.514620 3.376359 13.422731 0
M  V30 367 H 27.973492 0.803610 13.710575 0
M  V30 368 N 23.179258 1.646697 14.586744 0
M  V30 369 H 27.971216 0.803610 13.710490 0
M  V30 370 N 23.225351 3.664404 12.963482 0
M  V30 371 H 22.850105 0.803610 14.733813 0
M  V30 372 H 23.228821 1.180992 12.230292 0
M  V30 373 H 22.991711 0.803610 12.300759 0
M  V30 374 H 27.353550 0.803610 10.938129 0
M  V30 375 N 24.248288 2.716280 10.759958 0
M  V30 376 H 28.125497 0.803610 13.525594 0
M  V30 377 H 29.439740 0.803610 8.380968 0
M  V30 378 H 29.439740 0.803610 13.100911 0
M  V30 379 H 27.342462 3.723509 4.869000 0
M  V30 380 H 29.439740 2.489466 4.869000 0
M  V30 381 H 29.439740 2.485362 11.922111 0
M  V30 382 N 24.349973 2.850200 10.356336 0
M  V30 383 N 24.531854 3.981234 8.958484 0
M  V30 384 H 29.439740 0.803610 20.748420 0
M  V30 385 H 22.909466 0.803610 18.460549 0
M  V30 386 H 23.766921 0.803610 20.748420 0
M  V30 387 H 29.439740 0.803610 4.869000 0
M  V30 388 H 26.389896 0.803610 4.869000 0
M  V30 389 N 17.510809 7.976636 7.315202 0
M  V30 390 H 17.456443 8.929961 4.869000 0
M  V30 391 N 17.950048 7.754730 7.877916 0
M  V30 392 H 12.906855 5.926271 4.869000 0
M  V30 393 H 11.885310 4.783215 4.869000 0
M  V30 394 N 16.918422 6.159406 8.225761 0
M  V30 395 H 11.885310 13.256650 4.869000 0
M  V30 396 H 16.958987 13.256650 8.594370 0
M  V30 397 H 11.885310 7.378798 4.869000 0
M  V30 398 H 11.885310 13.256650 6.541552 0
M  V30 399 N 17.551429 10.215347 15.763231 0
M  V30 400 H 17.396787 13.256650 18.504138 0
M  V30 401 H 12.143774 8.981955 18.970148 0
M  V30 402 H 11.885310 9.022489 19.209091 0
M  V30 403 H 11.885310 10.810146 20.748420 0
M  V30 404 H 14.553879 13.256650 20.748420 0
M  V30 405 N 16.282187 9.714439 16.333886 0
M  V30 406 N 15.341365 8.985677 16.782575 0
M  V30 407 H 12.754600 9.028669 18.528168 0
M  V30 408 H 11.885310 9.167361 18.882389 0
M  V30 409 H 11.885310 13.256650 20.748420 0
M  V30 410 H 11.885310 13.256650 16.403608 0
M  V30 411 H 11.969924 9.127647 18.863801 0
M  V30 412 H 11.885310 9.878272 13.015078 0
M  V30 413 H 11.885310 12.349679 11.654895 0
M  V30 414 H 12.354564 12.135592 11.803636 0
M  V30 415 N 15.418431 10.174967 14.044541 0
M  V30 416 H 11.885310 9.658600 13.469989 0
M  V30 417 H 11.885310 9.203681 18.752532 0
M  V30 418 H 11.885310 12.163649 11.490034 0
M  V30 419 N 16.577564 11.483241 12.510301 0
M  V30 420 H 19.194063 13.256650 11.868284 0
M  V30 421 H 11.885310 13.256650 10.385823 0
M  V30 422 H 15.198083 12.767066 9.309494 0
M  V30 423 H 11.885310 13.256650 11.205134 0
M  V30 424 H 11.885310 12.156846 11.460780 0
M  V30 425 H 11.885310 12.333240 11.065100 0
M  V30 426 H 14.438956 13.256650 9.278518 0
M  V30 427 H 15.495024 13.256650 9.211023 0
M  V30 428 N 15.492539 8.912362 8.975981 0
M  V30 429 H 11.885310 13.256650 9.019038 0
M  V30 430 H 11.885310 11.841927 8.885654 0
M  V30 431 H 11.885310 9.540606 10.797319 0
M  V30 432 H 22.162801 3.606291 20.748420 0
M  V30 433 N 22.124875 4.528394 13.383462 0
M  V30 434 N 22.454122 2.202902 9.033600 0
M  V30 435 H 21.534293 0.803610 9.939835 0
M  V30 436 H 21.518673 0.803610 7.706820 0
M  V30 END ATOM
M  V30 BEGIN BOND
M  V30 1 1 1 18
M  V30 2 1 1 7
M  V30 3 1 1 25
M  V30 4 1 2 19
M  V30 5 1 2 8
M  V30 6 1 2 20
M  V30 7 1 3 9
M  V30 8 1 3 21
M  V30 9 1 3 11
M  V30 10 1 4 12
M  V30 11 1 4 11
M  V30 12 1 5 13
M  V30 13 1 5 24
M  V30 14 1 6 8
M  V30 15 1 6 13
M  V30 16 1 7 14
M  V30 17 1 7 19
M  V30 18 1 8 14
M  V30 19 1 9 16
M  V30 20 1 9 20
M  V30 21 1 10 12
M  V30 22 1 10 17
M  V30 23 1 11 12
M  V30 24 1 14 18
M  V30 25 1 15 25
M  V30 26 1 15 17
M  V30 27 1 15 22
M  V30 28 1 16 23
M  V30 29 1 16 17
M  V30 30 1 18 24
M  V30 31 1 19 23
M  V30 32 1 20 21
M  V30 33 1 22 24
M  V30 34 1 23 25
M  V30 35 1 11 32
M  V30 36 1 13 29
M  V30 37 1 26 31
M  V30 38 1 27 6
M  V30 39 1 27 29
M  V30 40 1 3 31
M  V30 41 1 28 30
M  V30 42 1 29 30
M  V30 43 1 31 32
M  V30 44 1 33 36
M  V30 45 1 33 35
M  V30 46 1 33 37
M  V30 47 1 31 36
M  V30 48 1 34 38
M  V30 49 1 26 35
M  V30 50 1 36 37
M  V30 51 1 37 38
M  V30 52 1 39 43
M  V30 53 1 39 40
M  V30 54 1 39 30
M  V30 55 1 40 41
M  V30 56 1 40 43
M  V30 57 1 12 42
M  V30 58 1 12 48
M  V30 59 1 44 45
M  V30 60 1 44 52
M  V30 61 1 44 53
M  V30 62 1 43 51
M  V30 63 1 45 59
M  V30 64 1 45 62
M  V30 65 1 46 41
M  V30 66 1 46 40
M  V30 67 1 46 50
M  V30 68 1 47 53
M  V30 69 1 47 50
M  V30 70 1 47 63
M  V30 71 1 49 63
M  V30 72 1 49 58
M  V30 73 1 49 62
M  V30 74 1 50 57
M  V30 75 1 51 60
M  V30 76 1 42 55
M  V30 77 1 52 54
M  V30 78 1 52 55
M  V30 79 1 53 57
M  V30 80 1 10 56
M  V30 81 1 54 56
M  V30 82 1 54 59
M  V30 83 1 55 57
M  V30 84 1 56 61
M  V30 85 1 58 59
M  V30 86 1 58 60
M  V30 87 1 60 61
M  V30 88 1 62 63
M  V30 89 1 39 29
M  V30 90 1 61 64
M  V30 91 1 51 5
M  V30 92 1 17 56
M  V30 93 1 15 64
M  V30 94 1 8 65
M  V30 95 1 27 65
M  V30 96 1 2 66
M  V30 97 1 65 66
M  V30 98 1 66 67
M  V30 99 1 67 35
M  V30 100 1 68 69
M  V30 101 1 68 46
M  V30 102 1 68 50
M  V30 103 1 69 57
M  V30 104 1 70 60
M  V30 105 1 70 24
M  V30 106 1 71 88
M  V30 107 1 71 83
M  V30 108 1 71 76
M  V30 109 1 72 77
M  V30 110 1 72 87
M  V30 111 1 73 76
M  V30 112 1 73 82
M  V30 113 1 73 86
M  V30 114 1 74 86
M  V30 115 1 74 81
M  V30 116 1 75 87
M  V30 117 1 75 80
M  V30 118 1 75 88
M  V30 119 1 76 84
M  V30 120 1 77 80
M  V30 121 1 78 79
M  V30 122 1 78 82
M  V30 123 1 78 85
M  V30 124 1 79 80
M  V30 125 1 81 82
M  V30 126 1 83 88
M  V30 127 1 83 85
M  V30 128 1 84 87
M  V30 129 1 85 88
M  V30 130 1 81 90
M  V30 131 1 89 91
M  V30 132 1 89 92
M  V30 133 1 89 80
M  V30 134 1 91 77
M  V30 135 1 92 93
M  V30 136 1 74 94
M  V30 137 1 95 91
M  V30 138 1 95 102
M  V30 139 1 96 98
M  V30 140 1 96 90
M  V30 141 1 96 93
M  V30 142 1 97 102
M  V30 143 1 97 107
M  V30 144 1 94 108
M  V30 145 1 98 101
M  V30 146 1 98 99
M  V30 147 1 99 100
M  V30 148 1 99 109
M  V30 149 1 92 100
M  V30 150 1 100 103
M  V30 151 1 101 107
M  V30 152 1 101 106
M  V30 153 1 102 104
M  V30 154 1 89 103
M  V30 155 1 103 110
M  V30 156 1 104 110
M  V30 157 1 104 105
M  V30 158 1 105 106
M  V30 159 1 105 107
M  V30 160 1 106 109
M  V30 161 1 109 110
M  V30 162 1 111 112
M  V30 163 1 111 72
M  V30 164 1 113 96
M  V30 165 1 113 114
M  V30 166 1 113 116
M  V30 167 1 114 82
M  V30 168 1 114 116
M  V30 169 1 115 116
M  V30 170 1 115 78
M  V30 171 1 117 118
M  V30 172 1 117 112
M  V30 173 1 97 118
M  V30 174 1 119 136
M  V30 175 1 119 121
M  V30 176 1 119 133
M  V30 177 1 120 131
M  V30 178 1 120 130
M  V30 179 1 121 124
M  V30 180 1 121 133
M  V30 181 1 122 125
M  V30 182 1 123 126
M  V30 183 1 123 134
M  V30 184 1 123 131
M  V30 185 1 124 133
M  V30 186 1 124 126
M  V30 187 1 125 137
M  V30 188 1 125 136
M  V30 189 1 126 131
M  V30 190 1 128 129
M  V30 191 1 128 137
M  V30 192 1 129 132
M  V30 193 1 129 135
M  V30 194 1 130 135
M  V30 195 1 130 132
M  V30 196 1 132 133
M  V30 197 1 132 135
M  V30 198 1 136 137
M  V30 199 1 127 141
M  V30 200 1 138 130
M  V30 201 1 134 139
M  V30 202 1 139 140
M  V30 203 1 140 141
M  V30 204 1 142 160
M  V30 205 1 142 152
M  V30 206 1 142 161
M  V30 207 1 143 151
M  V30 208 1 143 149
M  V30 209 1 143 140
M  V30 210 1 144 132
M  V30 211 1 144 152
M  V30 212 1 144 148
M  V30 213 1 145 156
M  V30 214 1 145 146
M  V30 215 1 145 163
M  V30 216 1 146 149
M  V30 217 1 146 156
M  V30 218 1 147 166
M  V30 219 1 147 151
M  V30 220 1 147 159
M  V30 221 1 148 158
M  V30 222 1 139 149
M  V30 223 1 138 154
M  V30 224 1 150 154
M  V30 225 1 150 155
M  V30 226 1 150 153
M  V30 227 1 152 153
M  V30 228 1 153 154
M  V30 229 1 155 161
M  V30 230 1 155 156
M  V30 231 1 157 164
M  V30 232 1 157 162
M  V30 233 1 157 163
M  V30 234 1 158 159
M  V30 235 1 159 160
M  V30 236 1 160 166
M  V30 237 1 161 162
M  V30 238 1 162 165
M  V30 239 1 163 164
M  V30 240 1 164 165
M  V30 241 1 165 166
M  V30 242 1 167 148
M  V30 243 1 151 170
M  V30 244 1 143 168
M  V30 245 1 168 170
M  V30 246 1 168 169
M  V30 247 1 141 169
M  V30 248 1 149 172
M  V30 249 1 155 171
M  V30 250 1 171 150
M  V30 251 1 171 174
M  V30 252 1 172 146
M  V30 253 1 172 173
M  V30 254 1 173 123
M  V30 255 1 173 174
M  V30 256 1 174 156
M  V30 257 1 167 175
M  V30 258 1 175 176
M  V30 259 1 170 176
M  V30 260 1 176 147
M  V30 261 1 177 181
M  V30 262 1 177 178
M  V30 263 1 177 171
M  V30 264 1 178 179
M  V30 265 1 178 182
M  V30 266 1 179 181
M  V30 267 1 180 189
M  V30 268 1 180 193
M  V30 269 1 181 187
M  V30 270 1 182 183
M  V30 271 1 183 184
M  V30 272 1 184 153
M  V30 273 1 142 190
M  V30 274 1 161 187
M  V30 275 1 152 189
M  V30 276 1 185 188
M  V30 277 1 185 187
M  V30 278 1 186 188
M  V30 279 1 186 190
M  V30 280 1 186 194
M  V30 281 1 188 192
M  V30 282 1 189 190
M  V30 283 1 191 193
M  V30 284 1 191 192
M  V30 285 1 192 194
M  V30 286 1 193 194
M  V30 287 1 195 183
M  V30 288 1 191 202
M  V30 289 1 180 197
M  V30 290 1 196 201
M  V30 291 1 196 197
M  V30 292 1 197 203
M  V30 293 1 198 201
M  V30 294 1 198 199
M  V30 295 1 199 200
M  V30 296 1 199 202
M  V30 297 1 200 203
M  V30 298 1 200 201
M  V30 299 1 203 193
M  V30 300 1 204 198
M  V30 301 1 204 201
M  V30 302 1 204 210
M  V30 303 1 196 133
M  V30 304 1 205 206
M  V30 305 1 205 85
M  V30 306 1 205 209
M  V30 307 1 124 208
M  V30 308 1 206 209
M  V30 309 1 207 209
M  V30 310 1 207 212
M  V30 311 1 208 212
M  V30 312 1 208 195
M  V30 313 1 210 88
M  V30 314 1 83 121
M  V30 315 1 182 211
M  V30 316 1 211 212
M  V30 317 1 213 217
M  V30 318 1 213 206
M  V30 319 1 202 216
M  V30 320 1 214 209
M  V30 321 1 214 215
M  V30 322 1 214 217
M  V30 323 1 207 215
M  V30 324 1 199 219
M  V30 325 1 210 218
M  V30 326 1 215 217
M  V30 327 1 216 220
M  V30 328 1 204 218
M  V30 329 1 218 219
M  V30 330 1 219 220
M  V30 331 1 215 222
M  V30 332 1 221 109
M  V30 333 1 221 225
M  V30 334 1 221 223
M  V30 335 1 99 224
M  V30 336 1 216 223
M  V30 337 1 100 213
M  V30 338 1 217 224
M  V30 339 1 211 226
M  V30 340 1 212 222
M  V30 341 1 222 226
M  V30 342 1 110 227
M  V30 343 1 224 225
M  V30 344 1 225 228
M  V30 345 1 226 228
M  V30 346 1 227 220
M  V30 347 1 227 103
M  V30 348 1 192 233
M  V30 349 1 228 179
M  V30 350 1 223 234
M  V30 351 1 229 230
M  V30 352 1 229 231
M  V30 353 1 229 185
M  V30 354 1 230 232
M  V30 355 1 230 188
M  V30 356 1 226 178
M  V30 357 1 231 234
M  V30 358 1 231 232
M  V30 359 1 232 233
M  V30 360 1 233 234
M  V30 361 1 144 235
M  V30 362 1 208 126
M  V30 363 1 197 235
M  V30 364 1 235 189
M  V30 365 1 173 222
M  V30 366 1 177 174
M  V30 367 1 236 75
M  V30 368 1 236 237
M  V30 369 1 236 218
M  V30 370 1 227 237
M  V30 371 1 205 115
M  V30 372 1 237 219
M  V30 373 1 116 214
M  V30 374 1 238 98
M  V30 375 1 238 113
M  V30 376 1 238 224
M  V30 377 1 221 251
M  V30 378 1 239 246
M  V30 379 1 239 250
M  V30 380 1 239 242
M  V30 381 1 240 247
M  V30 382 1 240 181
M  V30 383 1 241 251
M  V30 384 1 241 249
M  V30 385 1 241 246
M  V30 386 1 187 243
M  V30 387 1 231 242
M  V30 388 1 225 247
M  V30 389 1 242 245
M  V30 390 1 243 250
M  V30 391 1 243 244
M  V30 392 1 244 248
M  V30 393 1 244 246
M  V30 394 1 245 250
M  V30 395 1 245 229
M  V30 396 1 247 249
M  V30 397 1 248 249
M  V30 398 1 251 234
M  V30 399 1 157 253
M  V30 400 1 163 252
M  V30 401 1 243 162
M  V30 402 1 252 240
M  V30 403 1 252 145
M  V30 404 1 253 244
M  V30 405 1 254 263
M  V30 406 1 254 255
M  V30 407 1 254 260
M  V30 408 1 255 262
M  V30 409 1 255 256
M  V30 410 1 256 261
M  V30 411 1 256 269
M  V30 412 1 257 265
M  V30 413 1 257 262
M  V30 414 1 258 263
M  V30 415 1 258 267
M  V30 416 1 259 266
M  V30 417 1 259 267
M  V30 418 1 260 268
M  V30 419 1 261 266
M  V30 420 1 263 264
M  V30 421 1 264 269
M  V30 422 1 264 267
M  V30 423 1 265 268
M  V30 424 1 266 269
M  V30 425 1 270 259
M  V30 426 1 270 278
M  V30 427 1 268 276
M  V30 428 1 271 272
M  V30 429 1 271 275
M  V30 430 1 271 282
M  V30 431 1 272 281
M  V30 432 1 273 277
M  V30 433 1 273 258
M  V30 434 1 273 281
M  V30 435 1 267 277
M  V30 436 1 274 275
M  V30 437 1 274 278
M  V30 438 1 274 280
M  V30 439 1 275 279
M  V30 440 1 276 260
M  V30 441 1 277 280
M  V30 442 1 279 280
M  V30 443 1 279 282
M  V30 444 1 281 282
M  V30 445 1 283 293
M  V30 446 1 283 291
M  V30 447 1 283 292
M  V30 448 1 284 1
M  V30 449 1 284 292
M  V30 450 1 284 287
M  V30 451 1 23 272
M  V30 452 1 285 292
M  V30 453 1 285 288
M  V30 454 1 265 289
M  V30 455 1 7 293
M  V30 456 1 286 293
M  V30 457 1 286 289
M  V30 458 1 286 291
M  V30 459 1 19 276
M  V30 460 1 287 295
M  V30 461 1 287 25
M  V30 462 1 274 290
M  V30 463 1 288 290
M  V30 464 1 288 294
M  V30 465 1 290 278
M  V30 466 1 294 295
M  V30 467 1 294 275
M  V30 468 1 295 271
M  V30 469 1 286 301
M  V30 470 1 296 270
M  V30 471 1 296 305
M  V30 472 1 297 197
M  V30 473 1 297 303
M  V30 474 1 297 298
M  V30 475 1 298 285
M  V30 476 1 298 235
M  V30 477 1 289 301
M  V30 478 1 299 305
M  V30 479 1 299 290
M  V30 480 1 299 300
M  V30 481 1 300 194
M  V30 482 1 300 304
M  V30 483 1 300 203
M  V30 484 1 301 302
M  V30 485 1 186 305
M  V30 486 1 302 291
M  V30 487 1 303 203
M  V30 488 1 303 304
M  V30 489 1 288 304
M  V30 490 1 16 281
M  V30 491 1 263 67
M  V30 492 1 273 9
M  V30 493 1 66 254
M  V30 494 1 264 33
M  V30 495 1 277 36
M  V30 496 1 302 160
M  V30 497 1 175 283
M  V30 498 1 292 306
M  V30 499 1 306 298
M  V30 500 1 306 144
M  V30 501 1 176 293
M  V30 502 1 166 301
M  V30 503 1 307 269
M  V30 504 1 307 312
M  V30 505 1 307 309
M  V30 506 1 266 313
M  V30 507 1 308 305
M  V30 508 1 308 296
M  V30 509 1 308 316
M  V30 510 1 309 313
M  V30 511 1 309 312
M  V30 512 1 310 315
M  V30 513 1 310 311
M  V30 514 1 311 314
M  V30 515 1 312 315
M  V30 516 1 313 316
M  V30 517 1 314 37
M  V30 518 1 317 311
M  V30 519 1 317 318
M  V30 520 1 318 320
M  V30 521 1 318 319
M  V30 522 1 279 322
M  V30 523 1 294 321
M  V30 524 1 304 321
M  V30 525 1 314 319
M  V30 526 1 321 322
M  V30 527 1 303 324
M  V30 528 1 321 324
M  V30 529 1 52 320
M  V30 530 1 200 330
M  V30 531 1 323 325
M  V30 532 1 323 327
M  V30 533 1 54 333
M  V30 534 1 318 334
M  V30 535 1 324 331
M  V30 536 1 325 335
M  V30 537 1 325 329
M  V30 538 1 317 327
M  V30 539 1 44 329
M  V30 540 1 59 336
M  V30 541 1 326 338
M  V30 542 1 326 335
M  V30 543 1 326 332
M  V30 544 1 327 334
M  V30 545 1 328 331
M  V30 546 1 328 332
M  V30 547 1 328 336
M  V30 548 1 329 334
M  V30 549 1 330 331
M  V30 550 1 330 337
M  V30 551 1 332 337
M  V30 552 1 333 322
M  V30 553 1 333 336
M  V30 554 1 335 45
M  V30 555 1 337 338
M  V30 556 1 339 341
M  V30 557 1 339 327
M  V30 558 1 339 342
M  V30 559 1 310 341
M  V30 560 1 218 337
M  V30 561 1 201 340
M  V30 562 1 204 340
M  V30 563 1 340 330
M  V30 564 1 338 236
M  V30 565 1 282 333
M  V30 566 1 69 344
M  V30 567 1 53 343
M  V30 568 1 343 329
M  V30 569 1 343 344
M  V30 570 1 334 344
M  V30 571 1 104 342
M  V30 572 1 117 325
M  V30 573 1 326 346
M  V30 574 1 345 87
M  V30 575 1 345 111
M  V30 576 1 345 346
M  V30 577 1 346 335
M  V30 578 1 105 347
M  V30 579 1 107 348
M  V30 580 1 347 339
M  V30 581 1 347 348
M  V30 582 1 343 118
M  V30 583 1 348 344
M  V30 584 1 349 246
M  V30 585 1 349 360
M  V30 586 1 350 362
M  V30 587 1 350 361
M  V30 588 1 351 357
M  V30 589 1 351 356
M  V30 590 1 351 365
M  V30 591 1 352 164
M  V30 592 1 352 359
M  V30 593 1 352 358
M  V30 594 1 353 361
M  V30 595 1 353 362
M  V30 596 1 353 359
M  V30 597 1 354 356
M  V30 598 1 354 165
M  V30 599 1 354 250
M  V30 600 1 355 364
M  V30 601 1 355 360
M  V30 602 1 356 359
M  V30 603 1 357 363
M  V30 604 1 358 362
M  V30 605 1 360 364
M  V30 606 1 363 364
M  V30 607 1 363 365
M  V30 608 1 239 365
M  V30 609 1 366 370
M  V30 610 1 366 368
M  V30 611 1 366 363
M  V30 612 1 364 370
M  V30 613 1 367 350
M  V30 614 1 367 369
M  V30 615 1 307 371
M  V30 616 1 309 366
M  V30 617 1 368 371
M  V30 618 1 312 373
M  V30 619 1 372 373
M  V30 620 1 367 376
M  V30 621 1 374 376
M  V30 622 1 375 360
M  V30 623 1 101 379
M  V30 624 1 377 380
M  V30 625 1 377 378
M  V30 626 1 377 374
M  V30 627 1 251 383
M  V30 628 1 349 241
M  V30 629 1 378 376
M  V30 630 1 378 381
M  V30 631 1 238 380
M  V30 632 1 247 381
M  V30 633 1 375 382
M  V30 634 1 379 380
M  V30 635 1 379 382
M  V30 636 1 106 383
M  V30 637 1 382 383
M  V30 638 1 381 358
M  V30 639 1 378 362
M  V30 640 1 356 386
M  V30 641 1 353 384
M  V30 642 1 359 384
M  V30 643 1 384 386
M  V30 644 1 385 371
M  V30 645 1 385 386
M  V30 646 1 387 380
M  V30 647 1 387 377
M  V30 648 1 387 388
M  V30 649 1 379 388
M  V30 650 1 352 252
M  V30 651 1 389 391
M  V30 652 1 345 391
M  V30 653 1 390 86
M  V30 654 1 47 393
M  V30 655 1 392 389
M  V30 656 1 392 390
M  V30 657 1 392 393
M  V30 658 1 62 394
M  V30 659 1 63 393
M  V30 660 1 346 394
M  V30 661 1 394 391
M  V30 662 1 76 396
M  V30 663 1 395 397
M  V30 664 1 395 398
M  V30 665 1 395 73
M  V30 666 1 396 398
M  V30 667 1 392 397
M  V30 668 1 397 398
M  V30 669 1 399 129
M  V30 670 1 400 169
M  V30 671 1 400 122
M  V30 672 1 14 403
M  V30 673 1 401 402
M  V30 674 1 401 407
M  V30 675 1 401 284
M  V30 676 1 18 402
M  V30 677 1 400 404
M  V30 678 1 402 403
M  V30 679 1 168 404
M  V30 680 1 399 405
M  V30 681 1 403 404
M  V30 682 1 405 407
M  V30 683 1 405 406
M  V30 684 1 306 406
M  V30 685 1 406 407
M  V30 686 1 404 409
M  V30 687 1 125 410
M  V30 688 1 408 402
M  V30 689 1 408 410
M  V30 690 1 408 411
M  V30 691 1 409 410
M  V30 692 1 409 403
M  V30 693 1 407 411
M  V30 694 1 411 401
M  V30 695 1 406 415
M  V30 696 1 412 416
M  V30 697 1 412 418
M  V30 698 1 413 414
M  V30 699 1 413 418
M  V30 700 1 413 417
M  V30 701 1 414 415
M  V30 702 1 416 417
M  V30 703 1 416 287
M  V30 704 1 417 411
M  V30 705 1 414 419
M  V30 706 1 418 424
M  V30 707 1 413 423
M  V30 708 1 420 419
M  V30 709 1 420 119
M  V30 710 1 420 423
M  V30 711 1 421 425
M  V30 712 1 421 423
M  V30 713 1 421 426
M  V30 714 1 422 427
M  V30 715 1 422 426
M  V30 716 1 71 427
M  V30 717 1 424 425
M  V30 718 1 426 427
M  V30 719 1 428 422
M  V30 720 1 428 430
M  V30 721 1 429 430
M  V30 722 1 429 421
M  V30 723 1 429 426
M  V30 724 1 425 430
M  V30 725 1 431 424
M  V30 726 1 431 58
M  V30 727 1 49 430
M  V30 728 1 428 394
M  V30 729 1 412 431
M  V30 730 1 136 420
M  V30 731 1 410 423
M  V30 732 1 408 417
M  V30 733 1 396 427
M  V30 734 1 398 429
M  V30 735 1 397 393
M  V30 736 1 416 70
M  V30 737 1 432 257
M  V30 738 1 432 262
M  V30 739 1 313 433
M  V30 740 1 242 433
M  V30 741 1 308 230
M  V30 742 1 433 261
M  V30 743 1 316 232
M  V30 744 1 354 432
M  V30 745 1 256 385
M  V30 746 1 386 255
M  V30 747 1 365 433
M  V30 748 1 315 435
M  V30 749 1 434 436
M  V30 750 1 341 436
M  V30 751 1 435 436
M  V30 752 1 347 436
M  V30 753 1 383 434
M  V30 754 1 348 388
M  V30 END BOND
M  V30 END CTAB
M  END
